23
Coordinates from ORCA-job opt+numfreq E -30.657855680030
  C       0.338040     -0.800964      1.617480
  C       0.808563      0.570193      2.092600
  C       0.439525      1.482585     -0.212825
  H      -1.123089      0.029015     -0.576964
  C       0.140429      1.668316      1.271110
  H       1.512527      1.558011     -0.397401
  H      -0.060531      2.249861     -0.806211
  C       0.641346     -0.993660      0.134384
  H       0.566796      0.697671      3.149230
  H       1.892091      0.639689      1.977909
  C      -0.028100      0.108463     -0.693919
  H       0.277111     -1.971034     -0.189339
  H       1.718640     -0.951698     -0.041272
  H       0.493180      2.649034      1.595101
  H      -0.941234      1.629352      1.425287
  H       0.825456     -1.588779      2.195153
  H      -0.740897     -0.890851      1.771628
  Br     -5.131541     -1.272489     -0.469046
  C      -0.352084     -1.004657     -2.784864
  O       0.294179      0.025747     -2.078479
  H       0.033987     -1.992672     -2.511495
  H      -1.434672     -0.991882     -2.607603
  H      -0.156533     -0.819806     -3.839567
23
Coordinates from ORCA-job opt+numfreq E -30.657856238970
  C       0.338301     -0.800901      1.617477
  C       0.808424      0.570251      2.092776
  C       0.439866      1.482484     -0.212786
  H      -1.122770      0.029137     -0.576996
  C       0.140326      1.668174      1.270983
  H       1.512885      1.557937     -0.397020
  H      -0.059857      2.249941     -0.806194
  C       0.641555     -0.993579      0.134327
  H       0.566083      0.697701      3.149297
  H       1.892006      0.640104      1.978598
  C      -0.027744      0.108497     -0.694179
  H       0.277135     -1.970909     -0.189544
  H       1.718881     -0.951743     -0.041436
  H       0.492388      2.649105      1.594901
  H      -0.941284      1.628819      1.424760
  H       0.825882     -1.588816      2.194999
  H      -0.740707     -0.890917      1.771872
  Br     -5.133134     -1.272439     -0.467963
  C      -0.352164     -1.004714     -2.785037
  O       0.294316      0.025551     -2.078739
  H       0.033686     -1.992940     -2.511796
  H      -1.434776     -0.991739     -2.607735
  H      -0.156110     -0.819560     -3.839666
