18
Coordinates from ORCA-job opt+numfreq E -22.575213717750
  C       1.757245     -1.251702      0.121071
  C       2.628765      0.000150      0.069121
  C       0.760180      1.261257     -1.034448
  H      -0.757649      0.000213     -1.920298
  C       1.757460      1.252130      0.120879
  H       1.301845      1.308456     -1.983787
  H       0.118538      2.143491     -0.971406
  C       0.760159     -1.260822     -1.034339
  H       3.325548      0.000142      0.909378
  H       3.214632      0.000026     -0.853541
  C      -0.087361      0.000232     -1.057253
  H       0.118474     -2.143084     -0.971481
  H       1.301833     -1.307904     -1.983623
  H       2.379796      2.147606      0.069528
  H       1.215124      1.278065      1.069372
  H       2.379458     -2.147288      0.070067
  H       1.214753     -1.277382      1.069433
  Br     -1.338331     -0.000216      0.492471
18
Coordinates from ORCA-job opt+numfreq E -22.575217039620
  C       1.757446     -1.251620      0.121138
  C       2.628969      0.000153      0.068816
  C       0.760306      1.261221     -1.034285
  H      -0.756960      0.000212     -1.920708
  C       1.757576      1.252012      0.120996
  H       1.301864      1.308160     -1.983310
  H       0.118820      2.143305     -0.971204
  C       0.760289     -1.260840     -1.034205
  H       3.326008      0.000156      0.908554
  H       3.214204      0.000061     -0.854021
  C      -0.087196      0.000219     -1.057502
  H       0.118769     -2.142913     -0.971227
  H       1.301877     -1.307751     -1.983220
  H       2.379657      2.147385      0.069745
  H       1.215276      1.277691      1.069389
  H       2.379451     -2.147061      0.070127
  H       1.215049     -1.277108      1.069476
  Br     -1.340935      0.000086      0.492586
18
Coordinates from ORCA-job opt+numfreq E -22.575218629070
  C       1.757618     -1.251515      0.121283
  C       2.629260      0.000164      0.068470
  C       0.760456      1.261255     -1.034158
  H      -0.756513      0.000182     -1.921106
  C       1.757679      1.251891      0.121205
  H       1.301994      1.308038     -1.983037
  H       0.118899      2.143139     -0.970844
  C       0.760413     -1.260915     -1.034098
  H       3.326771      0.000175      0.907700
  H       3.213720      0.000113     -0.854765
  C      -0.086674      0.000193     -1.058173
  H       0.118819     -2.142757     -0.970774
  H       1.301971     -1.307761     -1.982979
  H       2.379476      2.147368      0.070263
  H       1.215222      1.277017      1.069472
  H       2.379373     -2.147025      0.070442
  H       1.215142     -1.276531      1.069555
  Br     -1.343156      0.000337      0.492687
18
Coordinates from ORCA-job opt+numfreq E -22.575218880620
  C       1.757632     -1.251474      0.121350
  C       2.629328      0.000168      0.068365
  C       0.760510      1.261320     -1.034141
  H      -0.756625      0.000176     -1.921116
  C       1.757684      1.251852      0.121283
  H       1.302095      1.308213     -1.983048
  H       0.118834      2.143110     -0.970666
  C       0.760452     -1.260976     -1.034074
  H       3.327044      0.000178      0.907450
  H       3.213536      0.000127     -0.855047
  C      -0.086330      0.000190     -1.058564
  H       0.118733     -2.142725     -0.970552
  H       1.302044     -1.307952     -1.982979
  H       2.379388      2.147429      0.070539
  H       1.215096      1.276701      1.069486
  H       2.379296     -2.147081      0.070665
  H       1.215045     -1.276235      1.069564
  Br     -1.343294      0.000348      0.492626
