23
Coordinates from ORCA-job opt+numfreq E -30.576581990320
  C       0.243673     -0.818806      1.794332
  C       0.906558      0.550286      1.908182
  C      -0.449716      1.380223     -0.024710
  H      -1.226447     -0.183318     -1.273776
  C      -0.048894      1.635757      1.422172
  H       0.419830      1.409139     -0.689914
  H      -1.157715      2.138577     -0.374033
  C      -0.145713     -1.092533      0.347795
  H       1.192685      0.740927      2.943826
  H       1.807182      0.563391      1.288678
  C      -1.039438     -0.003767     -0.213979
  H      -0.634539     -2.068186      0.251155
  H       0.740424     -1.098486     -0.296850
  H       0.422517      2.617343      1.495605
  H      -0.946732      1.640239      2.047036
  H       0.922091     -1.601809      2.138728
  H      -0.654120     -0.846940      2.418462
  Br     -2.788930     -0.097187      0.630798
  C       0.491035     -0.965790     -3.156503
  O       0.874114      0.003452     -2.361430
  H       0.342485     -1.969215     -2.640209
  H      -0.502388     -0.779462     -3.682395
  H       1.218849     -1.183280     -3.993868
23
Coordinates from ORCA-job opt+numfreq E -30.577240687980
  C       0.244290     -0.813547      1.809420
  C       0.905316      0.556532      1.920659
  C      -0.456080      1.378013     -0.013145
  H      -1.228406     -0.187915     -1.262985
  C      -0.052078      1.639248      1.433403
  H       0.411964      1.400375     -0.681290
  H      -1.163453      2.136811     -0.363186
  C      -0.152146     -1.090212      0.363512
  H       1.193382      0.749600      2.955718
  H       1.804768      0.570013      1.299618
  C      -1.046561     -0.005225     -0.201196
  H      -0.640098     -2.066686      0.271611
  H       0.728887     -1.094623     -0.289427
  H       0.419834      2.621012      1.502194
  H      -0.947623      1.646729      2.062015
  H       0.926241     -1.594627      2.151160
  H      -0.649594     -0.843191      2.439478
  Br     -2.799028     -0.096182      0.640216
  C       0.505279     -0.974047     -3.201586
  O       0.916372     -0.017919     -2.403420
  H       0.333877     -1.973789     -2.686602
  H      -0.486947     -0.759003     -3.718272
  H       1.218614     -1.210811     -4.048794
23
Coordinates from ORCA-job opt+numfreq E -30.577598570380
  C       0.245212     -0.807629      1.827101
  C       0.902304      0.564766      1.933451
  C      -0.458415      1.372142     -0.006711
  H      -1.225606     -0.200792     -1.249950
  C      -0.056313      1.642881      1.438224
  H       0.411003      1.389207     -0.674219
  H      -1.164416      2.130142     -0.360731
  C      -0.152268     -1.092131      0.383464
  H       1.187362      0.763478      2.968164
  H       1.803687      0.577731      1.315038
  C      -1.048878     -0.012307     -0.188242
  H      -0.637336     -2.070438      0.299132
  H       0.726911     -1.097660     -0.272531
  H       0.414417      2.625576      1.500601
  H      -0.952016      1.654152      2.066287
  H       0.930187     -1.585165      2.170498
  H      -0.647369     -0.838089      2.458870
  Br     -2.805340     -0.099839      0.646916
  C       0.511515     -0.976430     -3.244444
  O       0.960174     -0.052951     -2.427507
  H       0.300474     -1.978153     -2.748862
  H      -0.470775     -0.710345     -3.756568
  H       1.212296     -1.227592     -4.098880
23
Coordinates from ORCA-job opt+numfreq E -30.577805320760
  C       0.245846     -0.800814      1.846599
  C       0.899073      0.574006      1.945267
  C      -0.458435      1.362673     -0.005407
  H      -1.222539     -0.220720     -1.236692
  C      -0.060058      1.646045      1.437939
  H       0.413202      1.375434     -0.670244
  H      -1.163523      2.118229     -0.366217
  C      -0.149337     -1.097376      0.405063
  H       1.178922      0.781094      2.979704
  H       1.803494      0.584778      1.331209
  C      -1.048176     -0.023901     -0.176138
  H      -0.631956     -2.077535      0.329798
  H       0.730272     -1.107026     -0.250253
  H       0.408941      2.630066      1.492707
  H      -0.957254      1.661616      2.063686
  H       0.932865     -1.573971      2.195777
  H      -0.647269     -0.829730      2.477739
  Br     -2.806839     -0.106832      0.654485
  C       0.513091     -0.973104     -3.283459
  O       1.001204     -0.097268     -2.437121
  H       0.251672     -1.978514     -2.820222
  H      -0.451650     -0.643797     -3.792510
  H       1.205266     -1.232800     -4.142609
23
Coordinates from ORCA-job opt+numfreq E -30.577940441240
  C       0.246049     -0.793456      1.867122
  C       0.896042      0.583592      1.954981
  C      -0.457512      1.349764     -0.008194
  H      -1.220586     -0.246650     -1.223600
  C      -0.063120      1.648625      1.433352
  H       0.416574      1.357921     -0.669670
  H      -1.162184      2.101406     -0.377957
  C      -0.145418     -1.105076      0.427574
  H       1.170478      0.801312      2.988694
  H       1.803449      0.590379      1.345324
  C      -1.046104     -0.039133     -0.164850
  H      -0.626207     -2.086834      0.362220
  H       0.735862     -1.120547     -0.225083
  H       0.404269      2.633916      1.478978
  H      -0.962111      1.669475      2.056394
  H       0.934309     -1.561615      2.224809
  H      -0.648313     -0.818623      2.496715
  Br     -2.805276     -0.115867      0.664062
  C       0.512811     -0.964433     -3.317866
  O       1.038967     -0.148630     -2.435250
  H       0.193276     -1.971580     -2.896113
  H      -0.427427     -0.564446     -3.821859
  H       1.198984     -1.228945     -4.180682
23
Coordinates from ORCA-job opt+numfreq E -30.578037381660
  C       0.246305     -0.785861      1.887900
  C       0.893639      0.593281      1.961142
  C      -0.456720      1.333252     -0.014655
  H      -1.219954     -0.278344     -1.210644
  C      -0.065673      1.650456      1.424225
  H       0.419665      1.335454     -0.672956
  H      -1.161295      2.079757     -0.395045
  C      -0.141897     -1.115290      0.451034
  H       1.164043      0.823821      2.993175
  H       1.803147      0.594404      1.354650
  C      -1.043980     -0.057951     -0.154334
  H      -0.621334     -2.098400      0.396919
  H       0.741250     -1.137780     -0.198671
  H       0.400360      2.636855      1.458619
  H      -0.966078      1.677807      2.045009
  H       0.935575     -1.548323      2.255636
  H      -0.649032     -0.805419      2.516308
  Br     -2.803009     -0.126229      0.674897
  C       0.512306     -0.950060     -3.345757
  O       1.074142     -0.207223     -2.421613
  H       0.126651     -1.954119     -2.973864
  H      -0.395123     -0.471913     -3.841272
  H       1.193821     -1.217620     -4.211601
23
Coordinates from ORCA-job opt+numfreq E -30.578117753400
  C       0.246742     -0.778391      1.907424
  C       0.892683      0.602250      1.962387
  C      -0.458362      1.314637     -0.023138
  H      -1.224961     -0.313262     -1.195551
  C      -0.067281      1.651655      1.411514
  H       0.419041      1.309166     -0.680085
  H      -1.163249      2.055597     -0.413885
  C      -0.141257     -1.126975      0.474733
  H       1.162283      0.846720      2.991475
  H       1.802459      0.596045      1.356379
  C      -1.044967     -0.078509     -0.142950
  H      -0.620016     -2.111017      0.433412
  H       0.742523     -1.157271     -0.173786
  H       0.398325      2.638627      1.432406
  H      -0.967568      1.686978      2.032057
  H       0.937181     -1.535058      2.284687
  H      -0.648191     -0.790739      2.536593
  Br     -2.802324     -0.136188      0.690975
  C       0.515103     -0.931687     -3.367544
  O       1.106185     -0.271254     -2.400016
  H       0.060355     -1.926414     -3.051262
  H      -0.351804     -0.373909     -3.851656
  H       1.193911     -1.200446     -4.235066
23
Coordinates from ORCA-job opt+numfreq E -30.578194371860
  C       0.247605     -0.770992      1.925492
  C       0.893841      0.610267      1.957144
  C      -0.463190      1.292762     -0.034401
  H      -1.237504     -0.352814     -1.177885
  C      -0.067478      1.651822      1.393758
  H       0.413488      1.276542     -0.692338
  H      -1.168560      2.027929     -0.435252
  C      -0.144784     -1.140931      0.499165
  H       1.166960      0.870388      2.981511
  H       1.801456      0.594343      1.348110
  C      -1.050555     -0.101643     -0.130346
  H      -0.623744     -2.125370      0.473355
  H       0.737583     -1.180507     -0.150980
  H       0.398964      2.638599      1.397854
  H      -0.965602      1.697391      2.016723
  H       0.939533     -1.521730      2.311650
  H      -0.644945     -0.773798      2.558162
  Br     -2.804499     -0.145002      0.713231
  C       0.522312     -0.907464     -3.381110
  O       1.133673     -0.339496     -2.368477
  H      -0.003102     -1.885794     -3.127659
  H      -0.295923     -0.269398     -3.849888
  H       1.201285     -1.174549     -4.248716
23
Coordinates from ORCA-job opt+numfreq E -30.578272816280
  C       0.249151     -0.764172      1.940061
  C       0.898346      0.616130      1.942343
  C      -0.473539      1.268000     -0.048445
  H      -1.263426     -0.396129     -1.155089
  C      -0.065497      1.650687      1.370032
  H       0.399354      1.236987     -0.711303
  H      -1.179674      1.997729     -0.457800
  C      -0.155335     -1.156976      0.523273
  H       1.181705      0.893115      2.959525
  H       1.799969      0.587357      1.324925
  C      -1.064175     -0.126366     -0.115095
  H      -0.635923     -2.140864      0.516387
  H       0.721780     -1.207653     -0.133606
  H       0.403665      2.636040      1.353310
  H      -0.958084      1.709410      1.999786
  H       0.943113     -1.509468      2.332950
  H      -0.637735     -0.754410      2.580616
  Br     -2.810897     -0.150615      0.747165
  C       0.537563     -0.876784     -3.383328
  O       1.154985     -0.407790     -2.325426
  H      -0.054194     -1.833046     -3.199255
  H      -0.226606     -0.163414     -3.833945
  H       1.222265     -1.137213     -4.247979
23
Coordinates from ORCA-job opt+numfreq E -30.578341359470
  C       0.252049     -0.758386      1.949582
  C       0.906354      0.619153      1.917670
  C      -0.489602      1.241132     -0.064702
  H      -1.303749     -0.440863     -1.128251
  C      -0.061406      1.647751      1.340915
  H       0.376109      1.190974     -0.736455
  H      -1.196381      1.966685     -0.480139
  C      -0.173396     -1.174072      0.545805
  H       1.206673      0.913202      2.925158
  H       1.797914      0.575046      1.286660
  C      -1.086932     -0.151190     -0.097494
  H      -0.656578     -2.156510      0.561300
  H       0.693683     -1.236814     -0.123837
  H       0.411912      2.630457      1.300199
  H      -0.944911      1.721917      1.981784
  H       0.949012     -1.499069      2.345866
  H      -0.625375     -0.733773      2.602706
  Br     -2.822151     -0.151251      0.791949
  C       0.561458     -0.840927     -3.372443
  O       1.170173     -0.469375     -2.272705
  H      -0.087312     -1.771418     -3.260298
  H      -0.148034     -0.061714     -3.802745
  H       1.257301     -1.090399     -4.231423
23
Coordinates from ORCA-job opt+numfreq E -30.578389432770
  C       0.255490     -0.752892      1.956719
  C       0.915896      0.620293      1.887486
  C      -0.507549      1.210889     -0.083606
  H      -1.351674     -0.487302     -1.099960
  C      -0.055875      1.642738      1.306741
  H       0.349202      1.137672     -0.765465
  H      -1.213964      1.933399     -0.504760
  C      -0.195113     -1.192311      0.568499
  H       1.235602      0.932305      2.883533
  H       1.795680      0.558749      1.241560
  C      -1.114696     -0.177173     -0.078845
  H      -0.680965     -2.172602      0.609667
  H       0.659760     -1.268070     -0.116021
  H       0.422040      2.621834      1.239595
  H      -0.928785      1.734354      1.959869
  H       0.955706     -1.489195      2.355459
  H      -0.610701     -0.711565      2.623990
  Br     -2.835704     -0.148313      0.840360
  C       0.589240     -0.800142     -3.352964
  O       1.183474     -0.523742     -2.217891
  H      -0.108682     -1.700579     -3.312267
  H      -0.067601      0.038030     -3.755220
  H       1.296029     -1.035820     -4.207378
23
Coordinates from ORCA-job opt+numfreq E -30.578412231070
  C       0.258607     -0.751617      1.954211
  C       0.926021      0.616605      1.856723
  C      -0.527597      1.191674     -0.095623
  H      -1.404938     -0.513862     -1.070021
  C      -0.049810      1.638291      1.280914
  H       0.318436      1.098366     -0.789135
  H      -1.233248      1.915028     -0.516580
  C      -0.220108     -1.203624      0.579978
  H       1.266866      0.938561      2.842532
  H       1.792631      0.541325      1.194595
  C      -1.145871     -0.190556     -0.060134
  H      -0.708831     -2.181340      0.641107
  H       0.619379     -1.288178     -0.122740
  H       0.432819      2.613542      1.193484
  H      -0.910763      1.743580      1.947880
  H       0.961786     -1.487443      2.348585
  H      -0.594982     -0.697364      2.636778
  Br     -2.848284     -0.139362      0.893491
  C       0.620980     -0.770270     -3.330321
  O       1.193029     -0.538306     -2.177359
  H      -0.087478     -1.662544     -3.329425
  H      -0.015231      0.088085     -3.723907
  H       1.343399     -0.990036     -4.175931
23
Coordinates from ORCA-job opt+numfreq E -30.578433179430
  C       0.259129     -0.748206      1.959697
  C       0.929828      0.616797      1.843580
  C      -0.535233      1.174421     -0.105408
  H      -1.430561     -0.536450     -1.055789
  C      -0.046645      1.634753      1.262884
  H       0.306645      1.067571     -0.802310
  H      -1.239021      1.897323     -0.530347
  C      -0.230707     -1.212742      0.593608
  H       1.278099      0.948373      2.823602
  H       1.791812      0.531775      1.176565
  C      -1.160735     -0.204003     -0.049613
  H      -0.719613     -2.189378      0.668716
  H       0.604493     -1.303462     -0.113439
  H       0.438318      2.607510      1.161487
  H      -0.902855      1.750146      1.934381
  H       0.963262     -1.481866      2.356405
  H      -0.589446     -0.684794      2.647748
  Br     -2.854868     -0.136229      0.917134
  C       0.635210     -0.749203     -3.325056
  O       1.206280     -0.562467     -2.160703
  H      -0.094827     -1.623466     -3.355324
  H       0.021163      0.135272     -3.694942
  H       1.357082     -0.961122     -4.173771
23
Coordinates from ORCA-job opt+numfreq E -30.578465323600
  C       0.257793     -0.749226      1.958641
  C       0.930887      0.614759      1.842373
  C      -0.538500      1.175098     -0.103487
  H      -1.445076     -0.531361     -1.049079
  C      -0.045216      1.634342      1.263755
  H       0.301499      1.065251     -0.801742
  H      -1.240383      1.901112     -0.526439
  C      -0.236667     -1.211849      0.593325
  H       1.280955      0.945126      2.822154
  H       1.791895      0.528994      1.174100
  C      -1.169051     -0.201129     -0.044015
  H      -0.724952     -2.188672      0.669731
  H       0.596785     -1.300905     -0.114958
  H       0.440720      2.606470      1.161242
  H      -0.899551      1.750895      1.937536
  H       0.961550     -1.484711      2.352653
  H      -0.589012     -0.684943      2.648760
  Br     -2.856410     -0.131988      0.931655
  C       0.643784     -0.750021     -3.330798
  O       1.218844     -0.543077     -2.171543
  H      -0.070122     -1.636874     -3.348075
  H       0.012815      0.120660     -3.704575
  H       1.364224     -0.957393     -4.182110
23
Coordinates from ORCA-job opt+numfreq E -30.578501511770
  C       0.256315     -0.751635      1.953389
  C       0.935389      0.608892      1.829830
  C      -0.548959      1.172602     -0.104187
  H      -1.481258     -0.527080     -1.033894
  C      -0.040682      1.632316      1.257794
  H       0.284896      1.053899     -0.808506
  H      -1.248282      1.903445     -0.522968
  C      -0.252611     -1.212757      0.592323
  H       1.294945      0.938744      2.806306
  H       1.790425      0.518238      1.154553
  C      -1.189495     -0.198458     -0.033196
  H      -0.741300     -2.188836      0.673689
  H       0.575566     -1.301713     -0.121583
  H       0.448834      2.601928      1.148918
  H      -0.888186      1.754378      1.939343
  H       0.959795     -1.490510      2.341541
  H      -0.583956     -0.682497      2.650903
  Br     -2.860898     -0.123208      0.966125
  C       0.664370     -0.743593     -3.326035
  O       1.238418     -0.505161     -2.172132
  H      -0.019315     -1.652885     -3.328665
  H       0.005043      0.102248     -3.706573
  H       1.387758     -0.937801     -4.177872
23
Coordinates from ORCA-job opt+numfreq E -30.578528361240
  C       0.256436     -0.754064      1.945628
  C       0.941580      0.602102      1.808266
  C      -0.564036      1.166273     -0.108372
  H      -1.526260     -0.528351     -1.015644
  C      -0.035499      1.629316      1.244884
  H       0.261555      1.035890     -0.821353
  H      -1.261990      1.900838     -0.522890
  C      -0.272288     -1.216082      0.591982
  H       1.315785      0.933444      2.778742
  H       1.786916      0.503968      1.121954
  C      -1.214317     -0.198925     -0.021338
  H      -0.762394     -2.190634      0.681224
  H       0.548568     -1.307577     -0.130367
  H       0.458774      2.595208      1.125227
  H      -0.873143      1.759996      1.937099
  H       0.960830     -1.495656      2.326845
  H      -0.574034     -0.678020      2.654038
  Br     -2.866628     -0.113772      1.007789
  C       0.689959     -0.730746     -3.309097
  O       1.257538     -0.476014     -2.154789
  H       0.027904     -1.655389     -3.309991
  H       0.012302      0.098609     -3.692001
  H       1.419252     -0.909860     -4.158734
23
Coordinates from ORCA-job opt+numfreq E -30.578558312360
  C       0.258372     -0.759435      1.930217
  C       0.946981      0.594365      1.787096
  C      -0.580155      1.169764     -0.107561
  H      -1.568133     -0.516255     -1.004081
  C      -0.032548      1.627897      1.239688
  H       0.237721      1.035382     -0.829531
  H      -1.279024      1.908397     -0.513227
  C      -0.289367     -1.214771      0.581479
  H       1.335966      0.921428      2.753303
  H       1.781993      0.494559      1.088576
  C      -1.236053     -0.191955     -0.014611
  H      -0.780991     -2.188415      0.671736
  H       0.525064     -1.305438     -0.148982
  H       0.465585      2.591156      1.115267
  H      -0.860159      1.761810      1.943353
  H       0.964956     -1.504847      2.299680
  H      -0.561717     -0.682262      2.650474
  Br     -2.870355     -0.102688      1.044174
  C       0.713912     -0.729364     -3.286347
  O       1.272780     -0.435408     -2.135978
  H       0.083623     -1.675895     -3.271679
  H       0.008669      0.069452     -3.682186
  H       1.449692     -0.896922     -4.131759
23
Coordinates from ORCA-job opt+numfreq E -30.578587721000
  C       0.262510     -0.766178      1.911384
  C       0.948918      0.589700      1.778016
  C      -0.589923      1.185894     -0.099234
  H      -1.584193     -0.491713     -1.008353
  C      -0.034645      1.629405      1.249532
  H       0.225093      1.061689     -0.825881
  H      -1.292739      1.926962     -0.493376
  C      -0.293814     -1.207245      0.561409
  H       1.345259      0.906072      2.744892
  H       1.778290      0.498234      1.071741
  C      -1.242687     -0.178127     -0.018496
  H      -0.785770     -2.181583      0.642641
  H       0.518036     -1.291501     -0.173614
  H       0.463599      2.593472      1.132100
  H      -0.857255      1.756099      1.960279
  H       0.972489     -1.514850      2.267525
  H      -0.551824     -0.697503      2.639021
  Br     -2.871549     -0.092151      1.053059
  C       0.723637     -0.746456     -3.267989
  O       1.274885     -0.399511     -2.127643
  H       0.124425     -1.712618     -3.224253
  H      -0.008980      0.016043     -3.684294
  H       1.463047     -0.913577     -4.109362
23
Coordinates from ORCA-job opt+numfreq E -30.578598026250
  C       0.267497     -0.771070      1.893540
  C       0.954071      0.584124      1.756247
  C      -0.606943      1.190283     -0.097789
  H      -1.621020     -0.482810     -0.998218
  C      -0.033864      1.628222      1.245192
  H       0.200891      1.064543     -0.833290
  H      -1.312067      1.934089     -0.482305
  C      -0.307899     -1.204556      0.549690
  H       1.365275      0.895731      2.718462
  H       1.772585      0.493538      1.037202
  C      -1.262135     -0.172185     -0.013202
  H      -0.799525     -2.179065      0.631974
  H       0.494030     -1.284076     -0.197639
  H       0.466274      2.590955      1.124473
  H      -0.846571      1.755372      1.967100
  H       0.982020     -1.521912      2.235955
  H      -0.536140     -0.705209      2.633384
  Br     -2.877965     -0.080303      1.081893
  C       0.746053     -0.748142     -3.240211
  O       1.285828     -0.384496     -2.099497
  H       0.160655     -1.722311     -3.191593
  H       0.003878      0.000291     -3.665545
  H       1.491884     -0.910458     -4.076717
23
Coordinates from ORCA-job opt+numfreq E -30.578602395260
  C       0.267752     -0.771798      1.892491
  C       0.952095      0.585630      1.764715
  C      -0.602758      1.196984     -0.094074
  H      -1.608320     -0.475682     -1.005829
  C      -0.036312      1.629448      1.253521
  H       0.207615      1.078640     -0.826654
  H      -1.308816      1.940571     -0.477144
  C      -0.300560     -1.201045      0.544534
  H       1.357694      0.893803      2.730358
  H       1.774618      0.500168      1.049571
  C      -1.254262     -0.168144     -0.018120
  H      -0.790314     -2.177027      0.621021
  H       0.503788     -1.275383     -0.200128
  H       0.461536      2.594208      1.139643
  H      -0.852519      1.750751      1.972436
  H       0.982266     -1.522649      2.235004
  H      -0.539812     -0.710856      2.628512
  Br     -2.875635     -0.079758      1.069345
  C       0.738240     -0.758377     -3.245547
  O       1.281655     -0.382087     -2.110895
  H       0.156941     -1.734153     -3.184865
  H      -0.008792     -0.016503     -3.674648
  H       1.480709     -0.926187     -4.084144
23
Coordinates from ORCA-job opt+numfreq E -30.578604359170
  C       0.267420     -0.771546      1.893077
  C       0.952173      0.585676      1.764712
  C      -0.602679      1.195659     -0.095307
  H      -1.609945     -0.477454     -1.004499
  C      -0.035964      1.628981      1.252010
  H       0.207444      1.076415     -0.827938
  H      -1.308286      1.939545     -0.478543
  C      -0.300496     -1.201467      0.545182
  H       1.357173      0.894625      2.730305
  H       1.775200      0.499339      1.050238
  C      -1.254998     -0.169055     -0.017376
  H      -0.789210     -2.177881      0.622229
  H       0.503550     -1.274313     -0.199801
  H       0.461713      2.593772      1.137531
  H      -0.852335      1.750745      1.970688
  H       0.981665     -1.522286      2.236430
  H      -0.540730     -0.710059      2.628404
  Br     -2.875569     -0.079792      1.070806
  C       0.738620     -0.757084     -3.245313
  O       1.284640     -0.384701     -2.110717
  H       0.154921     -1.731261     -3.185746
  H      -0.006879     -0.012016     -3.671787
  H       1.479382     -0.925287     -4.085480
23
Coordinates from ORCA-job opt+numfreq E -30.578605845780
  C       0.267360     -0.771938      1.891656
  C       0.952489      0.585153      1.763358
  C      -0.603446      1.195265     -0.096480
  H      -1.613490     -0.477486     -1.003673
  C      -0.035571      1.628404      1.250546
  H       0.206066      1.075839     -0.829726
  H      -1.308863      1.939793     -0.478760
  C      -0.300762     -1.201337      0.543595
  H       1.357401      0.894178      2.728922
  H       1.775617      0.498362      1.049058
  C      -1.256541     -0.169045     -0.017267
  H      -0.788097     -2.178380      0.620272
  H       0.502855     -1.271531     -0.202138
  H       0.461961      2.593255      1.135855
  H      -0.851633      1.750177      1.969620
  H       0.981430     -1.522853      2.234975
  H      -0.541033     -0.710420      2.626688
  Br     -2.875512     -0.079349      1.072959
  C       0.739780     -0.756604     -3.241599
  O       1.289662     -0.384081     -2.108884
  H       0.155771     -1.730272     -3.179830
  H      -0.006424     -0.010985     -3.665981
  H       1.477791     -0.925589     -4.084065
23
Coordinates from ORCA-job opt+numfreq E -30.578606893900
  C       0.267213     -0.772199      1.890787
  C       0.952399      0.584941      1.763114
  C      -0.602970      1.195138     -0.097484
  H      -1.613111     -0.477543     -1.004833
  C      -0.035437      1.628113      1.249808
  H       0.206678      1.076125     -0.830645
  H      -1.308321      1.939882     -0.479500
  C      -0.299880     -1.201245      0.542088
  H       1.356544      0.893995      2.728988
  H       1.776081      0.498113      1.049471
  C      -1.256089     -0.169155     -0.018460
  H      -0.786370     -2.178725      0.617892
  H       0.504197     -1.269890     -0.203384
  H       0.461932      2.593081      1.135417
  H      -0.851814      1.749666      1.968591
  H       0.980945     -1.523171      2.234625
  H      -0.541883     -0.710763      2.625032
  Br     -2.875074     -0.079957      1.071495
  C       0.738809     -0.756288     -3.238314
  O       1.293117     -0.383327     -2.107931
  H       0.154137     -1.729337     -3.173735
  H      -0.008052     -0.010261     -3.660769
  H       1.473760     -0.926640     -4.083149
23
Coordinates from ORCA-job opt+numfreq E -30.578609132400
  C       0.266875     -0.772849      1.888750
  C       0.951692      0.584721      1.763606
  C      -0.600531      1.195413     -0.099739
  H      -1.608088     -0.477200     -1.010198
  C      -0.035564      1.627702      1.248940
  H       0.210390      1.078064     -0.831794
  H      -1.305766      1.940290     -0.481854
  C      -0.296493     -1.200887      0.538014
  H       1.353266      0.893515      2.730663
  H       1.777174      0.498605      1.051998
  C      -1.252933     -0.169291     -0.023034
  H      -0.781438     -2.179295      0.611017
  H       0.509594     -1.266748     -0.205755
  H       0.461356      2.593063      1.136074
  H      -0.853397      1.748266      1.966273
  H       0.979804     -1.523847      2.234062
  H      -0.544319     -0.712135      2.620716
  Br     -2.873720     -0.082461      1.063872
  C       0.734281     -0.755964     -3.230077
  O       1.300977     -0.380705     -2.106656
  H       0.147844     -1.727365     -3.156614
  H      -0.014705     -0.009466     -3.647731
  H       1.460515     -0.930870     -4.081429
23
Coordinates from ORCA-job opt+numfreq E -30.578611010070
  C       0.266592     -0.773324      1.887282
  C       0.950511      0.584955      1.765274
  C      -0.596928      1.195938     -0.101785
  H      -1.599389     -0.476876     -1.017343
  C      -0.036207      1.627581      1.248867
  H       0.216189      1.080390     -0.831751
  H      -1.301943      1.940466     -0.485100
  C      -0.292212     -1.200593      0.534382
  H       1.348991      0.893331      2.733777
  H       1.778119      0.500241      1.055996
  C      -1.248019     -0.169538     -0.028653
  H      -0.776313     -2.179653      0.604562
  H       0.516437     -1.265104     -0.206859
  H       0.460206      2.593429      1.138095
  H      -0.856150      1.746865      1.963994
  H       0.978935     -1.524106      2.234199
  H      -0.546873     -0.713789      2.616829
  Br     -2.872225     -0.085772      1.053060
  C       0.728052     -0.755785     -3.222772
  O       1.307801     -0.378644     -2.106710
  H       0.138984     -1.724975     -3.139907
  H      -0.022628     -0.008286     -3.635451
  H       1.444880     -0.936195     -4.080883
23
Coordinates from ORCA-job opt+numfreq E -30.578612609580
  C       0.266409     -0.773546      1.886546
  C       0.948963      0.585677      1.767963
  C      -0.592572      1.196562     -0.103538
  H      -1.588395     -0.476666     -1.025182
  C      -0.037348      1.627707      1.249455
  H       0.223423      1.082576     -0.830596
  H      -1.297179      1.940310     -0.489129
  C      -0.287550     -1.200431      0.531643
  H       1.344096      0.893537      2.738012
  H       1.778837      0.502902      1.061106
  C      -1.242036     -0.169909     -0.034536
  H      -0.771539     -2.179802      0.599480
  H       0.523772     -1.264998     -0.206676
  H       0.458468      2.594141      1.141171
  H      -0.859877      1.745483      1.961800
  H       0.978566     -1.523819      2.234971
  H      -0.549255     -0.715635      2.613796
  Br     -2.870694     -0.089439      1.040684
  C       0.721015     -0.755729     -3.217257
  O       1.313512     -0.377904     -2.108199
  H       0.128304     -1.722086     -3.125570
  H      -0.030469     -0.006252     -3.624909
  H       1.428362     -0.942124     -4.081933
23
Coordinates from ORCA-job opt+numfreq E -30.578613239540
  C       0.266272     -0.773287      1.887078
  C       0.947755      0.586596      1.770170
  C      -0.589250      1.196115     -0.105138
  H      -1.580453     -0.477911     -1.029925
  C      -0.038287      1.627788      1.249337
  H       0.228977      1.082379     -0.829748
  H      -1.293318      1.938995     -0.493302
  C      -0.284407     -1.200898      0.531200
  H       1.340486      0.894609      2.741127
  H       1.779253      0.504891      1.065076
  C      -1.237722     -0.170977     -0.038081
  H      -0.768713     -2.180219      0.598495
  H       0.528554     -1.266507     -0.205143
  H       0.457047      2.594633      1.142429
  H      -0.862831      1.744825      1.959416
  H       0.978562     -1.522841      2.236857
  H      -0.550837     -0.716315      2.612798
  Br     -2.869632     -0.092096      1.032425
  C       0.716177     -0.754751     -3.214884
  O       1.317413     -0.380584     -2.109384
  H       0.118487     -1.717816     -3.119772
  H      -0.033659     -0.000988     -3.617842
  H       1.416936     -0.945086     -4.084087
23
Coordinates from ORCA-job opt+numfreq E -30.578613425880
  C       0.266350     -0.773120      1.887390
  C       0.947491      0.586954      1.770604
  C      -0.588690      1.195846     -0.105498
  H      -1.579358     -0.478432     -1.030370
  C      -0.038618      1.627824      1.249205
  H       0.230021      1.081882     -0.829495
  H      -1.292587      1.938411     -0.494499
  C      -0.283977     -1.201168      0.531557
  H       1.339853      0.895064      2.741655
  H       1.779225      0.505461      1.065745
  C      -1.237020     -0.171360     -0.038434
  H      -0.768568     -2.180331      0.599278
  H       0.529056     -1.267353     -0.204578
  H       0.456526      2.594805      1.142556
  H      -0.863583      1.744673      1.958810
  H       0.978954     -1.522348      2.237283
  H      -0.550864     -0.716454      2.613013
  Br     -2.869434     -0.092413      1.031499
  C       0.715595     -0.754414     -3.214999
  O       1.318299     -0.382476     -2.109559
  H       0.115891     -1.716282     -3.120309
  H      -0.032969      0.001332     -3.616795
  H       1.415217     -0.945545     -4.084955
