23
 energy: -30.648573156017 gnorm: 0.000323042947 xtb: 6.3.2 (30e43eb)
C         2.78104183611274   -1.23142398474398   -0.30292937979419
C         2.99856786780903   -0.05378137824214    0.63887756763911
C         1.64511381393860    1.43344588606405   -0.86215188535279
H         0.05306491159763    0.33219302041522   -1.76341263610285
C         2.98936902088374    1.24315665141384   -0.16048711900926
H         1.67594408782762    2.30708393957712   -1.51792572441777
H         0.88567457936713    1.62494839042136   -0.09948130107570
C         1.42675258740678   -1.11620613686102   -1.00176159665458
H         2.19825207724724   -0.02891808645444    1.38289910243780
H         3.94980042181427   -0.16389642738019    1.16348486572986
C         1.14576757129567    0.23288570200285   -1.68862339711926
H         0.64225845315422   -1.25433516840649   -0.25304978798254
H         1.31023203088094   -1.90823059128432   -1.74564600128041
H         3.80601835709516    1.22337030933932   -0.88369519789898
H         3.15317225896809    2.09437702750929    0.50454508914315
H         3.59357309453601   -1.26100195030776   -1.03025139248140
H         2.79973580367025   -2.16853576011583    0.25832101644298
Br       -3.01329500526224    0.51581330385118    1.40495618127003
O         1.50390906163660    0.28123779655296   -3.06594923953834
C         2.86307642595759    0.12922162154026   -3.41969528614565
H         2.88252021279993    0.21953016247777   -4.50533242409793
H         3.48767670911360    0.91318261761747   -2.98425515237966
H         3.24829644504108   -0.85380867193849   -3.13628832739412
