23
energy: -30.580945515275 gnorm: 0.000561984195 xtb: 6.3.2 (30e43eb)
C      2.84823   -1.19361    0.00311
C      2.94960   -0.00102    0.94874
C      1.30358    1.25083   -0.46806
H      0.89152    0.11699   -2.77383
C      2.68551    1.29027    0.18043
H      1.13065    2.17112   -1.03243
H      0.52730    1.16417    0.29865
C      1.46566   -1.24222   -0.64352
H      2.21419   -0.10727    1.74975
H      3.94384    0.03185    1.39668
C      1.24469    0.05446   -1.39841
H      0.69312   -1.36358    0.12245
H      1.40540   -2.09062   -1.33138
H      3.43136    1.39935   -0.61205
H      2.75495    2.15428    0.84421
H      3.59325   -1.09071   -0.79126
H      3.03761   -2.12691    0.53724
Br    -0.55569    0.27566   -0.91302
O      2.81015    0.07847   -2.81979
C      3.36604   -0.16344   -4.66210
H      2.50019    1.14961   -4.96294
H      4.24327    0.09822   -5.32588
H      2.75002   -1.28240   -4.77577
