23
 energy: -30.580977932011 gnorm: 0.000235438950 xtb: 6.3.2 (30e43eb)
C         2.85334820997584   -1.18441858316295   -0.06540836448561
C         2.96732126240000   -0.01966171793863    0.91333934617077
C         1.28666680184668    1.26378615324809   -0.43270837108793
H         1.93704122117434    0.23757621470776   -2.22818169804656
C         2.68060380965046    1.29289180992665    0.19026485242221
H         1.09537344004015    2.20138734499728   -0.96135603974036
H         0.52627069517606    1.14310279814619    0.34538964038695
C         1.46128686638828   -1.21951524549917   -0.69253677556733
H         2.24978277629079   -0.15452287402256    1.72647938450554
H         3.97109644685225    0.00546234826991    1.34073678340267
C         1.22118271738346    0.09922451516412   -1.40191423355435
H         0.70127556023994   -1.36969906505405    0.08092171406977
H         1.39529574645903   -2.04654183331535   -1.40555016768713
H         3.41015898453422    1.43148140537904   -0.61285957200598
H         2.75773203347070    2.13589365427735    0.87955210421481
H         3.58698319251343   -1.05640013926551   -0.86692059240965
H         3.05322132638149   -2.13260606815341    0.43807433753932
Br       -0.54917285744112    0.06096524831508   -2.24295106997342
O         3.40969623620396    0.45426470302437   -3.46106617970847
C         3.38206542423504   -0.20681547205705   -4.59919102132378
H         2.44601339664897   -0.03255377968307   -5.21475209214709
H         4.23359956894104    0.04881969461127   -5.29746082874138
H         3.43732740859925   -1.33427857987525   -4.48194955925737
