23
Coordinates from ORCA-job optts+numfreq_reactant E -30.580977931830
  C       2.853348     -1.184419     -0.065408
  C       2.967321     -0.019662      0.913339
  C       1.286667      1.263786     -0.432708
  H       1.937041      0.237576     -2.228182
  C       2.680604      1.292892      0.190265
  H       1.095373      2.201387     -0.961356
  H       0.526271      1.143103      0.345390
  C       1.461287     -1.219515     -0.692537
  H       2.249783     -0.154523      1.726479
  H       3.971096      0.005462      1.340737
  C       1.221183      0.099225     -1.401914
  H       0.701276     -1.369699      0.080922
  H       1.395296     -2.046542     -1.405550
  H       3.410159      1.431481     -0.612860
  H       2.757732      2.135894      0.879552
  H       3.586983     -1.056400     -0.866921
  H       3.053221     -2.132606      0.438074
  Br     -0.549173      0.060965     -2.242951
  O       3.409696      0.454265     -3.461066
  C       3.382065     -0.206815     -4.599191
  H       2.446013     -0.032554     -5.214752
  H       4.233600      0.048820     -5.297461
  H       3.437327     -1.334279     -4.481950
23
Coordinates from ORCA-job optts+numfreq_reactant E -30.580978359500
  C       2.853513     -1.183718     -0.070683
  C       2.968867     -0.020929      0.910224
  C       1.285343      1.264711     -0.430257
  H       1.933786      0.241749     -2.228249
  C       2.680316      1.293037      0.190465
  H       1.092971      2.203192     -0.956971
  H       0.526134      1.142474      0.348751
  C       1.460171     -1.218141     -0.695034
  H       2.252892     -0.157761      1.724434
  H       3.973415      0.003762      1.335841
  C       1.218741      0.101938     -1.401497
  H       0.701649     -1.369972      0.079543
  H       1.393006     -2.043720     -1.409604
  H       3.408441      1.433617     -0.613623
  H       2.758258      2.134662      0.881345
  H       3.585261     -1.053612     -0.873587
  H       3.054945     -2.132814      0.430441
  Br     -0.552772      0.064970     -2.240265
  O       3.405465      0.460551     -3.461788
  C       3.384095     -0.209741     -4.594670
  H       2.447539     -0.047327     -5.212682
  H       4.234521      0.046666     -5.293979
  H       3.447614     -1.335752     -4.468201
