23
Coordinates from ORCA-job optts+numfreq_TSOpt_IRC_F E -30.554501412660
  C       0.651168     -1.179602      1.060348
  C       0.657656      0.020059      1.999449
  C      -0.848280      1.271851      0.434889
  H      -1.108613      0.090816     -1.479772
  C       0.482664      1.299279      1.190311
  H      -0.958796      2.166739     -0.180845
  H      -1.652146      1.261923      1.177204
  C      -0.674427     -1.250084      0.297656
  H      -0.154700     -0.073430      2.725597
  H       1.603941      0.055317      2.543212
  C      -0.938167      0.041501     -0.418531
  H      -1.467579     -1.430890      1.029231
  H      -0.667367     -2.081708     -0.410908
  H       1.282371      1.369483      0.453811
  H       0.507983      2.178003      1.838287
  H       1.452258     -1.062708      0.330275
  H       0.795945     -2.110672      1.612756
  Br     -3.405291     -0.129421     -0.485937
  O       0.979801      0.240049     -1.442963
  C       0.895281     -0.088953     -2.752725
  H       0.233784      0.594261     -3.334812
  H       1.892728     -0.040972     -3.227892
  H       0.511996     -1.120421     -2.919189
23
Coordinates from ORCA-job optts+numfreq_TSOpt_IRC_F E -30.558746664760
  C       0.653439     -1.180417      1.061900
  C       0.658304      0.020051      2.000332
  C      -0.841390      1.269794      0.428940
  H      -1.115841      0.090208     -1.479589
  C       0.484890      1.300139      1.191798
  H      -0.958271      2.167408     -0.180905
  H      -1.649998      1.259164      1.172220
  C      -0.668007     -1.246778      0.292205
  H      -0.154805     -0.073408      2.725481
  H       1.604086      0.055311      2.543876
  C      -0.883893      0.045795     -0.434245
  H      -1.465912     -1.427407      1.024657
  H      -0.666716     -2.082338     -0.411008
  H       1.283428      1.370192      0.455015
  H       0.507825      2.178378      1.839076
  H       1.453348     -1.063462      0.331556
  H       0.795839     -2.111172      1.613580
  Br     -3.443054     -0.132218     -0.486980
  O       0.952802      0.236348     -1.425216
  C       0.889601     -0.089299     -2.748609
  H       0.233772      0.594062     -3.333533
  H       1.890703     -0.039946     -3.222492
  H       0.512061     -1.119985     -2.918607
23
Coordinates from ORCA-job optts+numfreq_TSOpt_IRC_F E -30.565632495410
  C       0.656150     -1.181954      1.063551
  C       0.659102      0.020039      2.001006
  C      -0.832296      1.268450      0.422364
  H      -1.135584      0.088989     -1.484037
  C       0.487492      1.301740      1.193526
  H      -0.957104      2.168706     -0.181236
  H      -1.647865      1.251417      1.162755
  C      -0.659451     -1.243975      0.286133
  H      -0.154754     -0.073358      2.725268
  H       1.604351      0.055283      2.544916
  C      -0.820964      0.050345     -0.448335
  H      -1.465053     -1.418639      1.016266
  H      -0.665397     -2.083661     -0.411366
  H       1.285773      1.371549      0.457147
  H       0.508478      2.179526      1.840987
  H       1.455813     -1.064814      0.333801
  H       0.796632     -2.112464      1.615480
  Br     -3.478999     -0.134809     -0.489071
  O       0.924113      0.231747     -1.407849
  C       0.881030     -0.090686     -2.745725
  H       0.233468      0.593639     -3.330613
  H       1.885692     -0.037369     -3.208087
  H       0.511584     -1.119280     -2.917428
23
Coordinates from ORCA-job optts+numfreq_TSOpt_IRC_F E -30.574195238940
  C       0.658454     -1.183703      1.065249
  C       0.659831      0.020036      2.001439
  C      -0.824245      1.268402      0.418605
  H      -1.152748      0.087488     -1.480731
  C       0.489684      1.303494      1.195327
  H      -0.955845      2.169686     -0.181688
  H      -1.645490      1.243565      1.152986
  C      -0.651753     -1.242917      0.282710
  H      -0.154697     -0.073312      2.725042
  H       1.604645      0.055248      2.545927
  C      -0.768756      0.054697     -0.472671
  H      -1.463993     -1.409735      1.007610
  H      -0.664068     -2.084701     -0.411780
  H       1.288392      1.372963      0.459174
  H       0.509178      2.180362      1.842663
  H       1.458571     -1.066170      0.335906
  H       0.797431     -2.113411      1.617155
  Br     -3.508142     -0.136885     -0.490739
  O       0.898002      0.227699     -1.391602
  C       0.873065     -0.091827     -2.742097
  H       0.232600      0.593372     -3.328060
  H       1.881457     -0.034914     -3.194497
  H       0.510634     -1.119014     -2.916475
23
Coordinates from ORCA-job optts+numfreq_TSOpt_IRC_F E -30.584619894880
  C       0.660941     -1.185035      1.066490
  C       0.660802      0.020040      2.001999
  C      -0.814526      1.266619      0.411267
  H      -1.172255      0.085916     -1.479701
  C       0.492134      1.304904      1.196649
  H      -0.954144      2.171004     -0.181893
  H      -1.643261      1.233896      1.141648
  C      -0.642782     -1.239684      0.276031
  H      -0.154627     -0.073256      2.724737
  H       1.604916      0.055193      2.547076
  C      -0.713615      0.058835     -0.493180
  H      -1.463403     -1.398978      0.997658
  H      -0.662297     -2.086171     -0.411932
  H       1.291536      1.374714      0.461759
  H       0.510042      2.181490      1.844839
  H       1.461886     -1.067865      0.338550
  H       0.798443     -2.114686      1.619296
  Br     -3.536223     -0.138864     -0.492336
  O       0.867403      0.223279     -1.372790
  C       0.864522     -0.092835     -2.737092
  H       0.230998      0.593194     -3.325234
  H       1.876725     -0.032132     -3.178916
  H       0.508994     -1.119158     -2.915473
23
Coordinates from ORCA-job optts+numfreq_TSOpt_IRC_F E -30.595344503650
  C       0.663392     -1.187009      1.068092
  C       0.661490      0.020041      2.002228
  C      -0.806066      1.266203      0.407911
  H      -1.186524      0.084238     -1.471008
  C       0.494488      1.306901      1.198376
  H      -0.952331      2.172175     -0.182613
  H      -1.640106      1.224568      1.129789
  C      -0.634883     -1.238461      0.273179
  H      -0.154555     -0.073201      2.724415
  H       1.605278      0.055140      2.548236
  C      -0.669707      0.062820     -0.525136
  H      -1.461864     -1.388403      0.987178
  H      -0.660450     -2.087454     -0.412551
  H       1.294926      1.376413      0.464146
  H       0.510746      2.182106      1.846537
  H       1.465438     -1.069448      0.340973
  H       0.799234     -2.115422      1.621001
  Br     -3.560888     -0.140592     -0.493702
  O       0.839811      0.219372     -1.355033
  C       0.855772     -0.093864     -2.731679
  H       0.229324      0.592964     -3.322458
  H       1.872388     -0.029442     -3.163929
  H       0.507298     -1.119226     -2.914497
23
Coordinates from ORCA-job optts+numfreq_TSOpt_IRC_F E -30.605892189750
  C       0.665961     -1.188731      1.069431
  C       0.662320      0.020046      2.002522
  C      -0.796650      1.264837      0.402455
  H      -1.201877      0.082543     -1.463896
  C       0.497010      1.308682      1.199819
  H      -0.950161      2.173533     -0.183264
  H      -1.636828      1.214162      1.116900
  C      -0.626258     -1.236042      0.268423
  H      -0.154468     -0.073136      2.724018
  H       1.605644      0.055074      2.549513
  C      -0.625062      0.066565     -0.554064
  H      -1.460405     -1.376708      0.975844
  H      -0.658246     -2.088973     -0.413077
  H       1.298727      1.378317      0.466857
  H       0.511493      2.182845      1.848490
  H       1.469404     -1.071221      0.343705
  H       0.800100     -2.116310      1.622951
  Br     -3.585325     -0.142289     -0.495100
  O       0.810179      0.215279     -1.336357
  C       0.846617     -0.094843     -2.725464
  H       0.227241      0.592738     -3.319356
  H       1.867588     -0.026523     -3.147514
  H       0.505205     -1.119424     -2.913384
23
Coordinates from ORCA-job optts+numfreq_TSOpt_IRC_F E -30.615022376070
  C       0.668906     -1.189904      1.070436
  C       0.663515      0.020060      2.002918
  C      -0.785430      1.262478      0.393470
  H      -1.218912      0.080734     -1.457950
  C       0.500048      1.309980      1.200870
  H      -0.947199      2.175071     -0.183822
  H      -1.633045      1.201564      1.101795
  C      -0.616134     -1.232243      0.260446
  H      -0.154370     -0.073052      2.723481
  H       1.606001      0.054983      2.551032
  C      -0.584036      0.069564     -0.577541
  H      -1.458877     -1.362705      0.962680
  H      -0.655290     -2.090778     -0.413428
  H       1.303434      1.380664      0.470225
  H       0.512300      2.183865      1.850968
  H       1.474284     -1.073393      0.347045
  H       0.801099     -2.117542      1.625409
  Br     -3.610283     -0.144000     -0.496629
  O       0.780891      0.211155     -1.319051
  C       0.837115     -0.095543     -2.717347
  H       0.224255      0.592575     -3.315525
  H       1.861677     -0.023150     -3.128105
  H       0.502260     -1.119964     -2.911923
23
Coordinates from ORCA-job optts+numfreq_TSOpt_IRC_F E -30.622243267560
  C       0.672811     -1.191417      1.071636
  C       0.664922      0.020072      2.003251
  C      -0.772903      1.259780      0.383869
  H      -1.235306      0.078575     -1.447544
  C       0.504102      1.311652      1.202098
  H      -0.942749      2.177063     -0.185125
  H      -1.627050      1.185399      1.081708
  C      -0.605028     -1.228309      0.252165
  H      -0.154184     -0.072927      2.722637
  H       1.606552      0.054852      2.553109
  C      -0.556612      0.071454     -0.602329
  H      -1.455882     -1.344649      0.945219
  H      -0.650923     -2.093119     -0.414352
  H       1.310178      1.383779      0.474621
  H       0.513046      2.184637      1.853696
  H       1.481181     -1.076189      0.351327
  H       0.802072     -2.118598      1.628181
  Br     -3.638408     -0.145899     -0.498444
  O       0.758157      0.207846     -1.305638
  C       0.825787     -0.096400     -2.707148
  H       0.219933      0.592342     -3.310190
  H       1.854435     -0.018912     -3.103599
  H       0.498076     -1.120611     -2.909696
23
Coordinates from ORCA-job optts+numfreq_TSOpt_IRC_F E -30.628201931710
  C       0.677632     -1.191694      1.072117
  C       0.667244      0.020108      2.003737
  C      -0.759879      1.257032      0.371043
  H      -1.255001      0.076144     -1.439222
  C       0.509366      1.312167      1.202385
  H      -0.936027      2.179062     -0.187057
  H      -1.619732      1.165304      1.057272
  C      -0.593478     -1.224360      0.240827
  H      -0.153916     -0.072743      2.721327
  H       1.607142      0.054646      2.555883
  C      -0.544384      0.071630     -0.611317
  H      -1.452519     -1.322493      0.924269
  H      -0.644477     -2.095682     -0.415559
  H       1.319542      1.387914      0.480564
  H       0.513463      2.185319      1.856785
  H       1.490581     -1.079844      0.357008
  H       0.802835     -2.119734      1.631431
  Br     -3.670682     -0.148046     -0.500589
  O       0.748064      0.206124     -1.302191
  C       0.815042     -0.097022     -2.696214
  H       0.213569      0.592190     -3.302926
  H       1.845781     -0.013870     -3.073940
  H       0.492043     -1.121731     -2.906180
23
Coordinates from ORCA-job optts+numfreq_TSOpt_IRC_F E -30.633137565350
  C       0.682715     -1.192950      1.072765
  C       0.669406      0.020119      2.003720
  C      -0.748724      1.255020      0.363405
  H      -1.269781      0.073617     -1.426452
  C       0.514699      1.313509      1.202787
  H      -0.927179      2.181140     -0.191073
  H      -1.612094      1.144221      1.031441
  C      -0.583652     -1.221852      0.234435
  H      -0.153332     -0.072473      2.719309
  H       1.608155      0.054364      2.559451
  C      -0.546248      0.071374     -0.623538
  H      -1.449082     -1.299472      0.902127
  H      -0.636104     -2.098326     -0.418517
  H       1.331435      1.392630      0.487385
  H       0.513114      2.184299      1.858615
  H       1.502285     -1.083900      0.363459
  H       0.802739     -2.119312      1.633793
  Br     -3.705477     -0.150348     -0.502786
  O       0.745259      0.206710     -1.301301
  C       0.804327     -0.098592     -2.688783
  H       0.205582      0.592099     -3.294768
  H       1.839354     -0.008622     -3.044451
  H       0.484814     -1.122835     -2.901571
23
Coordinates from ORCA-job optts+numfreq_TSOpt_IRC_F E -30.637020927420
  C       0.687581     -1.191958      1.072437
  C       0.672777      0.020160      2.003818
  C      -0.738730      1.253578      0.353136
  H      -1.286986      0.071301     -1.420658
  C       0.520200      1.312602      1.201965
  H      -0.916797      2.181680     -0.195135
  H      -1.608290      1.125174      1.010278
  C      -0.574536     -1.219404      0.225045
  H      -0.152727     -0.072156      2.716708
  H       1.608778      0.053989      2.563144
  C      -0.538577      0.071516     -0.623332
  H      -1.448884     -1.279433      0.884061
  H      -0.626545     -2.099305     -0.421004
  H       1.343535      1.397515      0.495144
  H       0.511942      2.183374      1.860407
  H       1.514100     -1.088282      0.370666
  H       0.801947     -2.119246      1.636293
  Br     -3.740956     -0.152707     -0.504948
  O       0.738313      0.207758     -1.301697
  C       0.797298     -0.099151     -2.683053
  H       0.196698      0.592126     -3.287441
  H       1.835051     -0.004213     -3.019905
  H       0.477015     -1.124500     -2.896477
23
Coordinates from ORCA-job optts+numfreq_TSOpt_IRC_F E -30.640294998910
  C       0.692837     -1.192255      1.072876
  C       0.676069      0.020144      2.003746
  C      -0.729149      1.251606      0.346493
  H      -1.299303      0.068820     -1.408805
  C       0.525888      1.312805      1.201984
  H      -0.904350      2.181955     -0.200695
  H      -1.603753      1.106589      0.987671
  C      -0.565854     -1.217041      0.219309
  H      -0.151948     -0.071771      2.713295
  H       1.609825      0.053517      2.567629
  C      -0.539240      0.071526     -0.632295
  H      -1.447783     -1.259583      0.864353
  H      -0.615112     -2.099820     -0.424592
  H       1.357241      1.402995      0.504086
  H       0.510008      2.181517      1.861864
  H       1.527465     -1.093314      0.378898
  H       0.800349     -2.118414      1.638662
  Br     -3.781621     -0.155444     -0.507364
  O       0.734457      0.210608     -1.302237
  C       0.789383     -0.100095     -2.678384
  H       0.187065      0.591576     -3.280112
  H       1.830977      0.000021     -2.996393
  H       0.468760     -1.125520     -2.890539
23
Coordinates from ORCA-job optts+numfreq_TSOpt_IRC_F E -30.642806689900
  C       0.697733     -1.191768      1.073304
  C       0.679904      0.020101      2.004043
  C      -0.719793      1.249961      0.339118
  H      -1.313640      0.066478     -1.401967
  C       0.531191      1.312089      1.201940
  H      -0.890587      2.181197     -0.206441
  H      -1.600721      1.091353      0.967881
  C      -0.556969     -1.214533      0.212441
  H      -0.151361     -0.071408      2.709532
  H       1.610864      0.052938      2.572519
  C      -0.533833      0.071646     -0.633021
  H      -1.447407     -1.243179      0.846726
  H      -0.602510     -2.099273     -0.428138
  H       1.370633      1.408736      0.513913
  H       0.507138      2.179707      1.863689
  H       1.540620     -1.098905      0.387844
  H       0.797885     -2.117897      1.641465
  Br     -3.825323     -0.158462     -0.510002
  O       0.729934      0.214609     -1.303777
  C       0.783015     -0.100439     -2.675012
  H       0.177458      0.590558     -3.274279
  H       1.827246      0.003295     -2.978212
  H       0.460733     -1.126383     -2.884114
23
Coordinates from ORCA-job optts+numfreq_TSOpt_IRC_F E -30.644796269440
  C       0.703198     -1.191723      1.074729
  C       0.683820      0.019967      2.004896
  C      -0.711064      1.248391      0.333366
  H      -1.323065      0.064210     -1.391514
  C       0.536897      1.311677      1.203059
  H      -0.874901      2.180043     -0.213150
  H      -1.597492      1.079937      0.949163
  C      -0.548185     -1.212505      0.206894
  H      -0.151064     -0.071141      2.705641
  H       1.611907      0.052227      2.578116
  C      -0.532535      0.072276     -0.638620
  H      -1.445868     -1.230053      0.829264
  H      -0.587940     -2.098048     -0.432495
  H       1.384058      1.415037      0.525040
  H       0.503201      2.177780      1.866346
  H       1.554151     -1.105407      0.397929
  H       0.794366     -2.117529      1.645053
  Br     -3.875014     -0.162012     -0.513151
  O       0.727148      0.220311     -1.306133
  C       0.777400     -0.100392     -2.672824
  H       0.167618      0.588839     -3.270170
  H       1.822791      0.005644     -2.965114
  H       0.452783     -1.127108     -2.876873
23
Coordinates from ORCA-job optts+numfreq_TSOpt_IRC_F E -30.646344925450
  C       0.707956     -1.192313      1.076839
  C       0.687102      0.019682      2.006385
  C      -0.701829      1.248306      0.329494
  H      -1.332241      0.062364     -1.384692
  C       0.541347      1.311798      1.205164
  H      -0.857857      2.179111     -0.220432
  H      -1.594727      1.074596      0.933624
  C      -0.538166     -1.211123      0.202169
  H      -0.151215     -0.071146      2.702401
  H       1.612835      0.051392      2.584584
  C      -0.527590      0.072723     -0.639805
  H      -1.443181     -1.222429      0.813608
  H      -0.571587     -2.096439     -0.437845
  H       1.396327      1.421639      0.537084
  H       0.498223      2.175515      1.870053
  H       1.567188     -1.112656      0.408866
  H       0.789719     -2.117138      1.649485
  Br     -3.929642     -0.166079     -0.517022
  O       0.725798      0.227839     -1.309454
  C       0.771563     -0.100499     -2.672901
  H       0.158184      0.586226     -3.268999
  H       1.818394      0.006784     -2.959977
  H       0.445606     -1.127731     -2.869177
23
Coordinates from ORCA-job optts+numfreq_TSOpt_IRC_F E -30.647586077830
  C       0.712979     -1.192592      1.080380
  C       0.689750      0.019235      2.009411
  C      -0.694334      1.248056      0.324778
  H      -1.335482      0.061190     -1.376558
  C       0.545606      1.311495      1.209148
  H      -0.840045      2.179084     -0.227341
  H      -1.592115      1.076452      0.922406
  C      -0.528863     -1.209251      0.196212
  H      -0.151969     -0.071647      2.700515
  H       1.612483      0.050492      2.591260
  C      -0.523329      0.074635     -0.642101
  H      -1.438762     -1.221526      0.800596
  H      -0.553750     -2.094920     -0.444218
  H       1.406614      1.428316      0.549342
  H       0.492995      2.174194      1.876396
  H       1.579268     -1.120202      0.420199
  H       0.784750     -2.117727      1.655716
  Br     -3.986615     -0.170362     -0.521589
  O       0.724534      0.235729     -1.314544
  C       0.766967     -0.100233     -2.674513
  H       0.149327      0.582302     -3.271069
  H       1.812851      0.006447     -2.963271
  H       0.439351     -1.128748     -2.861702
23
Coordinates from ORCA-job optts+numfreq_TSOpt_IRC_F E -30.648587695450
  C       0.717648     -1.193784      1.083971
  C       0.690617      0.018877      2.011796
  C      -0.686256      1.251870      0.324509
  H      -1.339679      0.061113     -1.373488
  C       0.549187      1.312494      1.214071
  H      -0.822647      2.180244     -0.233480
  H      -1.589480      1.083033      0.913616
  C      -0.518180     -1.211188      0.193542
  H      -0.153691     -0.072825      2.700637
  H       1.611475      0.049663      2.598585
  C      -0.517744      0.076029     -0.640875
  H      -1.432987     -1.225326      0.788822
  H      -0.535313     -2.092226     -0.451610
  H       1.413752      1.434234      0.562071
  H       0.487907      2.171501      1.883055
  H       1.589394     -1.127030      0.432266
  H       0.779504     -2.116944      1.661465
  Br     -4.041459     -0.174401     -0.526593
  O       0.727004      0.244407     -1.320416
  C       0.762604     -0.100723     -2.678658
  H       0.140285      0.577546     -3.276177
  H       1.806519      0.005104     -2.971982
  H       0.433751     -1.131247     -2.855678
23
Coordinates from ORCA-job optts+numfreq_TSOpt_IRC_F E -30.648796491970
  C       0.718482     -1.193644      1.084863
  C       0.690643      0.018642      2.013176
  C      -0.685212      1.251666      0.323119
  H      -1.338762      0.061327     -1.371457
  C       0.549559      1.312377      1.215157
  H      -0.818757      2.180646     -0.234359
  H      -1.588868      1.085132      0.912218
  C      -0.516625     -1.210059      0.191409
  H      -0.154131     -0.073162      2.700656
  H       1.611081      0.049488      2.600317
  C      -0.516305      0.076860     -0.641611
  H      -1.431634     -1.226935      0.786666
  H      -0.530986     -2.091743     -0.453292
  H       1.415545      1.435440      0.564602
  H       0.487072      2.171555      1.885387
  H       1.591887     -1.128223      0.434696
  H       0.778724     -2.117431      1.663338
  Br     -4.052937     -0.175257     -0.527727
  O       0.725876      0.245609     -1.322041
  C       0.761626     -0.100912     -2.679362
  H       0.138351      0.575975     -3.277258
  H       1.804878      0.004622     -2.974569
  H       0.432702     -1.131553     -2.854473
23
Coordinates from ORCA-job optts+numfreq_TSOpt_IRC_F E -30.648981170960
  C       0.719156     -1.193736      1.085779
  C       0.690684      0.018452      2.014183
  C      -0.683588      1.252145      0.322920
  H      -1.338350      0.061587     -1.370010
  C       0.549833      1.312495      1.216361
  H      -0.815250      2.181165     -0.235342
  H      -1.588361      1.086963      0.910806
  C      -0.514470     -1.209830      0.190506
  H      -0.154573     -0.073489      2.700730
  H       1.610563      0.049321      2.601895
  C      -0.515844      0.077360     -0.642507
  H      -1.430437     -1.228331      0.784512
  H      -0.527024     -2.091208     -0.455031
  H       1.417038      1.436498      0.567033
  H       0.486263      2.171220      1.887167
  H       1.594035     -1.129273      0.437032
  H       0.777897     -2.117442      1.664666
  Br     -4.063426     -0.176039     -0.528782
  O       0.726039      0.247114     -1.323277
  C       0.760491     -0.101293     -2.680325
  H       0.136388      0.574632     -3.278456
  H       1.803459      0.004204     -2.976929
  H       0.431687     -1.132095     -2.853481
