23
Coordinates from ORCA-job optts+numfreq_TSOpt_IRC_B E -30.553871086990
  C       0.636793     -1.171095      1.046955
  C       0.655121      0.020179      1.994368
  C      -0.889656      1.274451      0.465063
  H      -0.985840      0.098403     -1.420129
  C       0.468756      1.291145      1.177238
  H      -0.982687      2.153839     -0.176102
  H      -1.663910      1.326767      1.238201
  C      -0.714524     -1.260392      0.326136
  H      -0.148418     -0.073917      2.730190
  H       1.608469      0.056572      2.524898
  C      -1.109065      0.026864     -0.349221
  H      -1.469744     -1.502648      1.081643
  H      -0.692000     -2.070840     -0.406874
  H       1.248018      1.344517      0.417418
  H       0.516522      2.178906      1.811723
  H       1.413867     -1.035818      0.293554
  H       0.806451     -2.107275      1.583752
  Br     -3.379959     -0.127579     -0.485189
  O       1.046146      0.248835     -1.496472
  C       0.919677     -0.088540     -2.774369
  H       0.238751      0.592451     -3.362815
  H       1.895561     -0.069972     -3.324616
  H       0.509461     -1.125275     -2.934805
23
Coordinates from ORCA-job optts+numfreq_TSOpt_IRC_B E -30.556289915110
  C       0.631094     -1.169618      1.043539
  C       0.654361      0.020234      1.992867
  C      -0.899313      1.274198      0.468929
  H      -0.985194      0.097522     -1.405344
  C       0.463169      1.289458      1.173875
  H      -0.984038      2.152468     -0.174587
  H      -1.667472      1.329061      1.242501
  C      -0.724065     -1.261587      0.329744
  H      -0.148120     -0.073933      2.730152
  H       1.608237      0.056617      2.524056
  C      -1.144654      0.024215     -0.340634
  H      -1.472878     -1.505866      1.085504
  H      -0.693444     -2.069751     -0.405322
  H       1.246263      1.343765      0.416352
  H       0.516379      2.177733      1.809904
  H       1.412082     -1.035111      0.292422
  H       0.806212     -2.105803      1.581904
  Br     -3.328789     -0.123835     -0.483204
  O       1.067307      0.252605     -1.512155
  C       0.925736     -0.088411     -2.780614
  H       0.238304      0.592779     -3.364586
  H       1.897367     -0.070969     -3.329076
  H       0.509247     -1.126194     -2.935679
23
Coordinates from ORCA-job optts+numfreq_TSOpt_IRC_B E -30.559116702890
  C       0.627776     -1.167788      1.041547
  C       0.652568      0.020252      1.991698
  C      -0.906472      1.274500      0.475278
  H      -0.971980      0.097667     -1.392881
  C       0.460000      1.287634      1.171886
  H      -0.987429      2.151107     -0.173437
  H      -1.672436      1.336274      1.251504
  C      -0.731042     -1.263383      0.335906
  H      -0.148451     -0.074043      2.730616
  H       1.606620      0.056675      2.521042
  C      -1.185037      0.021114     -0.334144
  H      -1.476719     -1.514571      1.093458
  H      -0.696964     -2.068693     -0.404194
  H       1.241564      1.342085      0.413647
  H       0.514452      2.176093      1.806790
  H       1.407280     -1.033630      0.289583
  H       0.804145     -2.103958      1.578694
  Br     -3.280239     -0.120257     -0.479817
  O       1.086354      0.257670     -1.521569
  C       0.933251     -0.085944     -2.780063
  H       0.237607      0.593465     -3.369750
  H       1.903642     -0.074560     -3.347339
  H       0.509300     -1.128130     -2.937908
23
Coordinates from ORCA-job optts+numfreq_TSOpt_IRC_B E -30.561634368700
  C       0.621026     -1.166293      1.037605
  C       0.649910      0.020147      1.990943
  C      -0.917988      1.273907      0.481874
  H      -0.955049      0.097737     -1.373846
  C       0.453388      1.285890      1.167965
  H      -0.991679      2.148775     -0.170933
  H      -1.676148      1.346279      1.261379
  C      -0.742456     -1.264886      0.342308
  H      -0.148952     -0.074191      2.731165
  H       1.606354      0.056807      2.518572
  C      -1.215477      0.018771     -0.326537
  H      -1.478964     -1.525974      1.102111
  H      -0.701434     -2.067004     -0.401713
  H       1.236064      1.339745      0.409789
  H       0.512492      2.175139      1.803727
  H       1.401585     -1.031384      0.285605
  H       0.802214     -2.102750      1.575380
  Br     -3.235505     -0.116878     -0.476584
  O       1.108538      0.263056     -1.535036
  C       0.943629     -0.084350     -2.786154
  H       0.239849      0.592947     -3.373085
  H       1.904797     -0.078869     -3.365483
  H       0.511596     -1.127042     -2.938502
23
Coordinates from ORCA-job optts+numfreq_TSOpt_IRC_B E -30.563642880430
  C       0.615790     -1.165182      1.036047
  C       0.646859      0.020117      1.988715
  C      -0.926104      1.275660      0.491380
  H      -0.931793      0.098355     -1.354053
  C       0.448224      1.284518      1.166683
  H      -0.999235      2.146420     -0.168286
  H      -1.683089      1.358738      1.274815
  C      -0.750251     -1.268577      0.351391
  H      -0.149685     -0.074431      2.732229
  H       1.603752      0.056923      2.513496
  C      -1.228830      0.017139     -0.312853
  H      -1.483942     -1.540531      1.113944
  H      -0.709177     -2.065596     -0.399109
  H       1.226121      1.336432      0.404631
  H       0.509840      2.173721      1.798918
  H       1.391308     -1.028443      0.280345
  H       0.799628     -2.100966      1.570243
  Br     -3.207480     -0.114423     -0.476403
  O       1.136178      0.270537     -1.548580
  C       0.952054     -0.082882     -2.794058
  H       0.242797      0.593434     -3.378353
  H       1.909736     -0.084571     -3.391574
  H       0.515091     -1.126811     -2.939019
23
Coordinates from ORCA-job optts+numfreq_TSOpt_IRC_B E -30.565449775350
  C       0.609739     -1.166270      1.035030
  C       0.643278      0.019909      1.988285
  C      -0.935862      1.277461      0.501686
  H      -0.905339      0.099122     -1.330276
  C       0.441903      1.285206      1.166191
  H      -1.008856      2.143486     -0.163313
  H      -1.688735      1.370572      1.287065
  C      -0.759593     -1.272492      0.361148
  H      -0.151098     -0.074803      2.733838
  H       1.603011      0.057136      2.508865
  C      -1.229980      0.016485     -0.297705
  H      -1.487787     -1.554075      1.124719
  H      -0.719079     -2.064270     -0.394239
  H       1.214811      1.332607      0.397496
  H       0.509856      2.175623      1.797032
  H       1.379602     -1.024683      0.273031
  H       0.800277     -2.102326      1.567475
  Br     -3.197910     -0.113001     -0.481557
  O       1.165959      0.278003     -1.566299
  C       0.965491     -0.081783     -2.807779
  H       0.247993      0.593185     -3.383087
  H       1.909461     -0.091310     -3.418807
  H       0.520646     -1.124201     -2.938252
23
Coordinates from ORCA-job optts+numfreq_TSOpt_IRC_B E -30.567061730600
  C       0.606207     -1.166549      1.036411
  C       0.640713      0.019750      1.988394
  C      -0.943614      1.280336      0.513981
  H      -0.879397      0.100160     -1.308251
  C       0.438237      1.285218      1.168189
  H      -1.019898      2.141927     -0.158064
  H      -1.695832      1.379273      1.299866
  C      -0.766782     -1.277409      0.372736
  H      -0.151205     -0.075106      2.735220
  H       1.601299      0.057274      2.504255
  C      -1.234664      0.015592     -0.284420
  H      -1.493407     -1.564662      1.136230
  H      -0.730364     -2.064362     -0.389183
  H       1.202004      1.329386      0.391259
  H       0.512245      2.176974      1.795306
  H       1.366488     -1.021533      0.266464
  H       0.803320     -2.102790      1.564751
  Br     -3.191766     -0.111575     -0.491778
  O       1.196663      0.285765     -1.583638
  C       0.974826     -0.080511     -2.819114
  H       0.253082      0.593802     -3.389914
  H       1.913123     -0.098309     -3.449828
  H       0.526513     -1.123073     -2.938327
23
Coordinates from ORCA-job optts+numfreq_TSOpt_IRC_B E -30.568464114600
  C       0.600238     -1.168069      1.035255
  C       0.638446      0.019624      1.988655
  C      -0.954148      1.280714      0.524441
  H      -0.856969      0.100998     -1.285979
  C       0.431859      1.286484      1.167783
  H      -1.030961      2.139737     -0.149617
  H      -1.702130      1.385154      1.312158
  C      -0.777077     -1.279861      0.382634
  H      -0.151764     -0.075566      2.738376
  H       1.602784      0.057463      2.502295
  C      -1.233545      0.015358     -0.271501
  H      -1.498689     -1.572251      1.147670
  H      -0.741791     -2.064289     -0.381039
  H       1.190777      1.326256      0.385158
  H       0.516441      2.178524      1.795231
  H       1.354972     -1.018082      0.259953
  H       0.808316     -2.103364      1.563457
  Br     -3.186280     -0.110050     -0.505726
  O       1.225100      0.292560     -1.602922
  C       0.989028     -0.079768     -2.834748
  H       0.259009      0.593426     -3.395821
  H       1.911216     -0.105195     -3.476994
  H       0.532960     -1.120225     -2.938172
23
Coordinates from ORCA-job optts+numfreq_TSOpt_IRC_B E -30.569599199970
  C       0.599335     -1.166474      1.038558
  C       0.636999      0.019457      1.989790
  C      -0.959370      1.283068      0.537461
  H      -0.835189      0.102178     -1.269456
  C       0.431045      1.284836      1.171658
  H      -1.043256      2.139954     -0.142393
  H      -1.709676      1.387162      1.324827
  C      -0.781796     -1.283924      0.395001
  H      -0.149344     -0.075726      2.739793
  H       1.600260      0.057520      2.497916
  C      -1.238967      0.014652     -0.262754
  H      -1.505538     -1.576065      1.159690
  H      -0.754244     -2.066279     -0.374222
  H       1.178648      1.323676      0.380239
  H       0.519728      2.178845      1.793842
  H       1.342597     -1.015328      0.254580
  H       0.812255     -2.102601      1.560848
  Br     -3.181000     -0.108420     -0.522004
  O       1.252362      0.299350     -1.618811
  C       0.993843     -0.078747     -2.843782
  H       0.263565      0.594071     -3.403879
  H       1.916941     -0.111557     -3.506578
  H       0.538592     -1.120068     -2.939775
23
Coordinates from ORCA-job optts+numfreq_TSOpt_IRC_B E -30.569940349230
  C       0.596996     -1.167436      1.037313
  C       0.636654      0.019467      1.989837
  C      -0.962781      1.282346      0.539274
  H      -0.830605      0.102364     -1.264201
  C       0.428487      1.285758      1.170673
  H      -1.046047      2.139347     -0.139021
  H      -1.710623      1.387093      1.327635
  C      -0.785264     -1.283676      0.396728
  H      -0.149660     -0.075901      2.741264
  H       1.602001      0.057607      2.498269
  C      -1.236819      0.014823     -0.259878
  H      -1.506464     -1.576307      1.162516
  H      -0.757141     -2.066350     -0.370992
  H       1.176425      1.322847      0.378936
  H       0.520996      2.179301      1.794269
  H       1.340319     -1.014316      0.253128
  H       0.813770     -2.102850      1.560896
  Br     -3.179631     -0.107987     -0.526671
  O       1.258176      0.300605     -1.623892
  C       0.999000     -0.078740     -2.848902
  H       0.265022      0.593779     -3.405174
  H       1.914807     -0.113074     -3.511606
  H       0.540174     -1.119120     -2.939853
23
Coordinates from ORCA-job optts+numfreq_TSOpt_IRC_B E -30.570480580850
  C       0.593835     -1.168453      1.038027
  C       0.637403      0.019543      1.989657
  C      -0.966858      1.282018      0.543101
  H      -0.820883      0.102910     -1.255864
  C       0.424974      1.286571      1.171998
  H      -1.051984      2.138799     -0.133276
  H      -1.713539      1.386508      1.333872
  C      -0.789335     -1.284004      0.400401
  H      -0.149603     -0.076154      2.743535
  H       1.602785      0.057696      2.497398
  C      -1.236039      0.014829     -0.254746
  H      -1.509295     -1.576516      1.168699
  H      -0.763216     -2.066981     -0.365532
  H       1.172079      1.321440      0.375993
  H       0.522941      2.179398      1.794071
  H       1.335775     -1.012535      0.250013
  H       0.816073     -2.102506      1.560061
  Br     -3.176820     -0.107119     -0.535895
  O       1.269896      0.303274     -1.632703
  C       1.005174     -0.078583     -2.856306
  H       0.267579      0.593501     -3.408397
  H       1.913739     -0.115994     -3.523040
  H       0.543112     -1.118064     -2.940519
23
Coordinates from ORCA-job optts+numfreq_TSOpt_IRC_B E -30.571059480430
  C       0.592260     -1.168178      1.038975
  C       0.637183      0.019519      1.990197
  C      -0.970651      1.282174      0.549430
  H      -0.809333      0.103626     -1.247054
  C       0.423300      1.286288      1.173398
  H      -1.059356      2.138955     -0.127174
  H      -1.717047      1.384903      1.341028
  C      -0.793002     -1.285016      0.406430
  H      -0.148169     -0.076312      2.745278
  H       1.602918      0.057793      2.495649
  C      -1.236736      0.014759     -0.250589
  H      -1.512784     -1.575816      1.175850
  H      -0.770659     -2.068362     -0.359782
  H       1.166068      1.320012      0.373495
  H       0.524707      2.179544      1.793678
  H       1.329642     -1.010859      0.247188
  H       0.818260     -2.102117      1.558857
  Br     -3.173397     -0.106066     -0.547138
  O       1.283572      0.306444     -1.642203
  C       1.009293     -0.078305     -2.862851
  H       0.270292      0.593405     -3.412748
  H       1.915018     -0.119338     -3.537613
  H       0.546411     -1.117472     -2.941756
23
Coordinates from ORCA-job optts+numfreq_TSOpt_IRC_B E -30.571615860000
  C       0.589824     -1.168508      1.039045
  C       0.637001      0.019492      1.990742
  C      -0.975304      1.281699      0.554924
  H      -0.798029      0.104325     -1.238152
  C       0.420658      1.286615      1.173972
  H      -1.066789      2.138887     -0.120099
  H      -1.720194      1.382510      1.348202
  C      -0.797603     -1.285377      0.411684
  H      -0.146985     -0.076529      2.747579
  H       1.604263      0.057943      2.494451
  C      -1.235884      0.014844     -0.246081
  H      -1.516026     -1.574284      1.183130
  H      -0.778181     -2.069648     -0.353110
  H       1.160476      1.318593      0.370995
  H       0.526545      2.179906      1.793654
  H       1.323936     -1.009102      0.244334
  H       0.820562     -2.101971      1.557956
  Br     -3.169781     -0.104957     -0.559047
  O       1.296514      0.309314     -1.652173
  C       1.015308     -0.078117     -2.870632
  H       0.273032      0.593173     -3.416904
  H       1.914730     -0.122591     -3.550973
  H       0.549719     -1.116637     -2.942949
23
Coordinates from ORCA-job optts+numfreq_TSOpt_IRC_B E -30.572147186530
  C       0.588212     -1.168199      1.039908
  C       0.637026      0.019475      1.991399
  C      -0.979173      1.281397      0.561022
  H      -0.786528      0.105099     -1.229900
  C       0.418928      1.286329      1.175312
  H      -1.074666      2.139292     -0.113080
  H      -1.723509      1.379186      1.355540
  C      -0.801387     -1.285867      0.417506
  H      -0.145094     -0.076688      2.749584
  H       1.604882      0.058084      2.492603
  C      -1.235996      0.014892     -0.242587
  H      -1.519526     -1.571852      1.190642
  H      -0.786079     -2.071368     -0.346545
  H       1.154727      1.317398      0.368701
  H       0.528017      2.180099      1.793372
  H       1.318094     -1.007589      0.241664
  H       0.822474     -2.101660      1.556780
  Br     -3.165857     -0.103775     -0.571558
  O       1.309301      0.312154     -1.661709
  C       1.019472     -0.077963     -2.877435
  H       0.275729      0.592954     -3.421374
  H       1.915713     -0.125763     -3.564782
  H       0.553031     -1.116056     -2.944517
23
Coordinates from ORCA-job optts+numfreq_TSOpt_IRC_B E -30.572656904950
  C       0.585799     -1.168467      1.040011
  C       0.637180      0.019495      1.991831
  C      -0.983670      1.280603      0.566569
  H      -0.775295      0.105873     -1.221624
  C       0.416294      1.286602      1.175952
  H      -1.082576      2.139510     -0.105275
  H      -1.726428      1.375103      1.362765
  C      -0.805865     -1.285853      0.422799
  H      -0.143429     -0.076901      2.752120
  H       1.606607      0.058276      2.491210
  C      -1.234762      0.015079     -0.238979
  H      -1.522738     -1.568610      1.198136
  H      -0.794014     -2.072988     -0.339236
  H       1.149381      1.316264      0.366456
  H       0.529466      2.180436      1.793395
  H       1.312658     -1.006073      0.239029
  H       0.824386     -2.101531      1.555867
  Br     -3.161761     -0.102532     -0.584600
  O       1.321293      0.314721     -1.671403
  C       1.025068     -0.077882     -2.885099
  H       0.278355      0.592669     -3.425735
  H       1.915565     -0.128815     -3.577511
  H       0.556276     -1.115401     -2.946134
23
Coordinates from ORCA-job optts+numfreq_TSOpt_IRC_B E -30.573143676990
  C       0.584289     -1.168087      1.040872
  C       0.637472      0.019496      1.992503
  C      -0.987450      1.279964      0.572559
  H      -0.763867      0.106721     -1.213991
  C       0.414667      1.286278      1.177300
  H      -1.090851      2.140150     -0.097589
  H      -1.729581      1.370147      1.370148
  C      -0.809581     -1.285940      0.428502
  H      -0.140997     -0.077042      2.754271
  H       1.607608      0.058467      2.489110
  C      -1.234505      0.015233     -0.236289
  H      -1.526219     -1.564603      1.205824
  H      -0.802258     -2.074986     -0.332106
  H       1.143878      1.315415      0.364433
  H       0.530519      2.180634      1.793227
  H       1.307103     -1.004868      0.236581
  H       0.825873     -2.101277      1.554752
  Br     -3.157280     -0.101150     -0.598108
  O       1.332991      0.317191     -1.680706
  C       1.028952     -0.077837     -2.891839
  H       0.280972      0.592359     -3.430320
  H       1.916523     -0.131763     -3.590489
  H       0.559533     -1.114925     -2.948097
23
Coordinates from ORCA-job optts+numfreq_TSOpt_IRC_B E -30.573609386550
  C       0.581833     -1.168447      1.040885
  C       0.637933      0.019546      1.992848
  C      -0.991865      1.278857      0.577879
  H      -0.752738      0.107570     -1.206351
  C       0.411968      1.286669      1.177883
  H      -1.099053      2.140491     -0.089116
  H      -1.732276      1.364552      1.377297
  C      -0.814016     -1.285548      0.433558
  H      -0.138880     -0.077249      2.757022
  H       1.609846      0.058716      2.487512
  C      -1.232775      0.015527     -0.233309
  H      -1.529351     -1.559903      1.213377
  H      -0.810440     -2.076767     -0.324247
  H       1.138815      1.314658      0.362472
  H       0.531539      2.180947      1.793397
  H       1.302008     -1.003688      0.234175
  H       0.827341     -2.101194      1.553944
  Br     -3.152698     -0.099687     -0.612015
  O       1.343771      0.319365     -1.690065
  C       1.034291     -0.077854     -2.899364
  H       0.283472      0.592010     -3.434795
  H       1.916390     -0.134561     -3.602313
  H       0.562677     -1.114432     -2.950126
23
Coordinates from ORCA-job optts+numfreq_TSOpt_IRC_B E -30.574052369860
  C       0.580605     -1.167891      1.041888
  C       0.638464      0.019555      1.993560
  C      -0.995375      1.277990      0.583819
  H      -0.741372      0.108494     -1.199356
  C       0.410661      1.286204      1.179370
  H      -1.107637      2.141367     -0.081051
  H      -1.735269      1.358281      1.384592
  C      -0.817493     -1.285343      0.439199
  H      -0.135798     -0.077360      2.759182
  H       1.611046      0.058953      2.484980
  C      -1.232449      0.015760     -0.231493
  H      -1.532831     -1.554602      1.221085
  H      -0.818913     -2.078986     -0.316850
  H       1.133504      1.314260      0.360767
  H       0.532091      2.181131      1.793370
  H       1.296699     -1.002917      0.231990
  H       0.828304     -2.100990      1.552925
  Br     -3.147702     -0.098121     -0.626211
  O       1.354284      0.321449     -1.698933
  C       1.037553     -0.077921     -2.905797
  H       0.286001      0.591605     -3.439481
  H       1.917568     -0.137240     -3.614480
  H       0.565849     -1.114098     -2.952527
23
Coordinates from ORCA-job optts+numfreq_TSOpt_IRC_B E -30.574469412680
  C       0.577853     -1.168559      1.041588
  C       0.639200      0.019650      1.993689
  C      -0.999822      1.276578      0.588660
  H      -0.730624      0.109378     -1.192292
  C       0.407619      1.286912      1.179676
  H      -1.115925      2.141669     -0.072131
  H      -1.737585      1.351629      1.391403
  C      -0.822001     -1.284555      0.443772
  H      -0.133421     -0.077573      2.762237
  H       1.614051      0.059259      2.483319
  C      -1.229940      0.016174     -0.228892
  H      -1.535701     -1.548855      1.228371
  H      -0.827039     -2.080723     -0.308609
  H       1.128894      1.313916      0.359096
  H       0.532705      2.181444      1.793823
  H       1.292092     -1.002113      0.229828
  H       0.829338     -2.101011      1.552385
  Br     -3.142727     -0.096490     -0.640465
  O       1.363565      0.323167     -1.707760
  C       1.042955     -0.078041     -2.913244
  H       0.288296      0.591208     -3.443956
  H       1.917217     -0.139705     -3.625038
  H       0.568789     -1.113782     -2.954913
23
Coordinates from ORCA-job optts+numfreq_TSOpt_IRC_B E -30.574858041230
  C       0.577327     -1.167566      1.042990
  C       0.639864      0.019658      1.994527
  C      -1.002749      1.275684      0.594625
  H      -0.719549      0.110345     -1.186078
  C       0.407084      1.286076      1.181498
  H      -1.124673      2.142826     -0.064298
  H      -1.740478      1.344522      1.398417
  C      -0.824863     -1.284239      0.449413
  H      -0.129565     -0.077607      2.764109
  H       1.615020      0.059524      2.480145
  C      -1.230067      0.016436     -0.228154
  H      -1.539162     -1.542793      1.235809
  H      -0.835449     -2.083139     -0.301522
  H       1.123775      1.314047      0.357791
  H       0.532696      2.181595      1.793916
  H       1.287047     -1.001891      0.227991
  H       0.829685     -2.100839      1.551480
  Br     -3.137315     -0.094768     -0.654646
  O       1.372717      0.324840     -1.715864
  C       1.044986     -0.078208     -2.918932
  H       0.290705      0.590706     -3.448643
  H       1.918944     -0.142039     -3.636303
  H       0.571812     -1.113592     -2.957725
