18
 energy: -22.576339788147 gnorm: 0.000632146010 xtb: 6.4.0 (d4b70c2)
C         2.36153676732565   -1.25302546686036   -0.20154446464612
C         3.03962351073066    0.00007781629943    0.34533832829836
C         0.87286380620092    1.25520158528413    0.14938277275827
H         0.25763253573923   -0.00005914487044   -1.50026247798794
C         2.36129582460451    1.25303935774660   -0.20159503858870
H         0.39006397177854    2.14406113620390   -0.26235144433591
H         0.75020125120080    1.27591948695116    1.23503288864048
C         0.87308652711211   -1.25535429310627    0.14933479259427
H         2.97795059179148    0.00008686202361    1.43575393271432
H         4.09521407308287    0.00016111842442    0.06888940890756
C         0.22879256377903   -0.00011350557611   -0.40850678779681
H         0.75036443951301   -1.27613052621374    1.23497244045019
H         0.39041368470138   -2.14425818560156   -0.26245892187488
H         2.47733851453055    1.28663205703554   -1.28729662477741
H         2.82899500764439    2.14667615732020    0.21400283125332
H         2.47764908030395   -1.28673500178123   -1.28722955722134
H         2.82934330893264   -2.14655651053248    0.21415298516654
Br       -1.72311535483650    0.00011246113821    0.02357860936842
