5
 energy: -7.985271565286 gnorm: 0.000102587781 xtb: 6.4.0 (d4b70c2)
O         0.25529128889287   -0.30319829842430   -1.23776329300948
C        -0.24551978490143    0.09773566411631   -0.09667368701299
H         0.38046603952277   -0.17334612651942    0.81639716297127
H        -1.27689721388622   -0.32450763968031    0.14198543086737
H        -0.38346894343416    1.22576237623494   -0.01049209205295
