5
Coordinates from ORCA-job opt+numfreq E  -7.985271565030
  O       0.255291     -0.303198     -1.237763
  C      -0.245520      0.097736     -0.096674
  H       0.380466     -0.173346      0.816397
  H      -1.276897     -0.324508      0.141985
  H      -0.383469      1.225762     -0.010492
5
Coordinates from ORCA-job opt+numfreq E  -7.985271579600
  O       0.255265     -0.303181     -1.237707
  C      -0.245534      0.097750     -0.096643
  H       0.380434     -0.173338      0.816343
  H      -1.276835     -0.324492      0.141966
  H      -0.383459      1.225707     -0.010505
