18
 energy: -18.991582442197 gnorm: 0.000185237066 xtb: 6.4.0 (d4b70c2)
C        -1.97316434783072   -0.04748049924844   -0.65048761240063
C        -1.22611288259903   -0.71669435174424    0.50007523889496
C         0.02181243095022    1.41589717441047    0.93082391041634
H        -1.62546699014060    2.56916103110691    0.16649977913807
H        -0.09766393086526    2.85745298459220   -0.67121213222545
C        -0.83356536108737    0.31572748042666    1.55363155282046
H         0.95135646695609    0.98155809023399    0.55446429985319
H         0.28229565764734    2.15915409722363    1.68793704872016
C        -1.11874337565992    1.05331176931344   -1.27351253105861
H        -1.85241008013880   -1.48993580127359    0.95097664008765
H        -0.32492673041021   -1.19914659588615    0.11361588839500
C        -0.72496954923216    2.08528164499422   -0.21988287980460
H        -1.66939494468575    1.53881212625562   -2.08254775910992
H        -0.21570850596057    0.61123781616042   -1.70169144398569
H        -0.28400379352611   -0.16929683859581    2.36366888881873
H        -1.73720297344265    0.75819540919912    1.98024384023376
H        -2.23329386457458   -0.79063411984116   -1.40778125477396
H        -2.90289062531410    0.38622131291530   -0.27395185323478
