22
Coordinates from ORCA-job opt+numfreq E -26.216511979560
  C       0.338301     -0.800901      1.617477
  C       0.808424      0.570251      2.092776
  C       0.439866      1.482484     -0.212786
  H      -1.122770      0.029137     -0.576996
  C       0.140326      1.668174      1.270983
  H       1.512885      1.557937     -0.397020
  H      -0.059857      2.249941     -0.806194
  C       0.641555     -0.993579      0.134327
  H       0.566083      0.697701      3.149297
  H       1.892006      0.640104      1.978598
  C      -0.027744      0.108497     -0.694179
  H       0.277135     -1.970909     -0.189544
  H       1.718881     -0.951743     -0.041436
  H       0.492388      2.649105      1.594901
  H      -0.941284      1.628819      1.424760
  H       0.825882     -1.588816      2.194999
  H      -0.740707     -0.890917      1.771872
  C      -0.352164     -1.004714     -2.785037
  O       0.294316      0.025551     -2.078739
  H       0.033686     -1.992940     -2.511796
  H      -1.434776     -0.991739     -2.607735
  H      -0.156110     -0.819560     -3.839666
22
Coordinates from ORCA-job opt+numfreq E -26.216539502980
  C       0.338349     -0.801777      1.618119
  C       0.807982      0.569726      2.093011
  C       0.438040      1.482767     -0.212978
  H      -1.123592      0.030443     -0.579731
  C       0.139712      1.668253      1.271616
  H       1.510824      1.559238     -0.397108
  H      -0.059866      2.251800     -0.805903
  C       0.639854     -0.994229      0.133838
  H       0.567883      0.697594      3.150092
  H       1.891508      0.640082      1.978880
  C      -0.028515      0.108630     -0.695804
  H       0.278395     -1.972482     -0.190018
  H       1.716846     -0.952298     -0.041755
  H       0.493849      2.648372      1.595215
  H      -0.941102      1.631460      1.428081
  H       0.828965     -1.588227      2.194775
  H      -0.739272     -0.892491      1.776932
  C      -0.352173     -1.005684     -2.785841
  O       0.292676      0.026595     -2.080200
  H       0.031760     -1.993746     -2.508937
  H      -1.435436     -0.987838     -2.613501
  H      -0.150364     -0.824303     -3.839923
22
Coordinates from ORCA-job opt+numfreq E -26.216553908910
  C       0.338457     -0.802953      1.617633
  C       0.807404      0.568799      2.092536
  C       0.435628      1.482647     -0.212786
  H      -1.125573      0.032151     -0.581657
  C       0.138982      1.668031      1.272152
  H       1.508511      1.560497     -0.396782
  H      -0.060053      2.253688     -0.804959
  C       0.637746     -0.994108      0.132785
  H       0.569743      0.696853      3.150230
  H       1.891106      0.640196      1.978923
  C      -0.030132      0.108915     -0.697148
  H       0.280399     -1.973623     -0.191266
  H       1.714873     -0.951241     -0.042533
  H       0.496303      2.647226      1.595147
  H      -0.941142      1.634640      1.432197
  H       0.833646     -1.587849      2.192419
  H      -0.737792     -0.894990      1.782129
  C      -0.352329     -1.007040     -2.785843
  O       0.289893      0.028363     -2.081239
  H       0.027043     -1.994369     -2.501166
  H      -1.436668     -0.981106     -2.622826
  H      -0.139723     -0.832844     -3.839085
22
Coordinates from ORCA-job opt+numfreq E -26.216555410670
  C       0.338869     -0.803199      1.617259
  C       0.807334      0.568652      2.092457
  C       0.435210      1.482358     -0.212661
  H      -1.126061      0.032077     -0.581109
  C       0.138891      1.667880      1.272163
  H       1.508186      1.560575     -0.396666
  H      -0.060356      2.253576     -0.804792
  C       0.637852     -0.993766      0.132537
  H       0.569485      0.696535      3.150164
  H       1.891130      0.640545      1.979425
  C      -0.030532      0.108773     -0.697097
  H       0.281427     -1.973670     -0.191523
  H       1.715140     -0.950218     -0.042721
  H       0.496733      2.647056      1.594925
  H      -0.941241      1.634959      1.432754
  H       0.835073     -1.587919      2.191539
  H      -0.737285     -0.895806      1.782565
  C      -0.352836     -1.007117     -2.785880
  O       0.289095      0.028713     -2.081288
  H       0.023495     -1.994396     -2.497634
  H      -1.437631     -0.977927     -2.626844
  H      -0.135654     -0.835797     -3.838711
22
Coordinates from ORCA-job opt+numfreq E -26.216556401840
  C       0.339736     -0.803400      1.616939
  C       0.807294      0.568654      2.092565
  C       0.434993      1.481963     -0.212605
  H      -1.126096      0.031350     -0.580112
  C       0.138771      1.667658      1.272082
  H       1.508006      1.560618     -0.396617
  H      -0.060888      2.252979     -0.804839
  C       0.638780     -0.993433      0.132377
  H       0.568516      0.696217      3.150123
  H       1.891165      0.641238      1.980472
  C      -0.030607      0.108347     -0.696896
  H       0.283197     -1.973762     -0.191573
  H       1.716171     -0.948915     -0.042798
  H       0.496612      2.646976      1.594625
  H      -0.941434      1.634696      1.432778
  H       0.836616     -1.587986      2.190927
  H      -0.736439     -0.896758      1.782352
  C      -0.353913     -1.006785     -2.786072
  O       0.288548      0.028786     -2.081305
  H       0.017342     -1.994432     -2.493044
  H      -1.439303     -0.972931     -2.632260
  H      -0.130745     -0.839195     -3.838254
