22
Coordinates from ORCA-job opt+numfreq E -26.215222824850
  C       0.732859     -1.166417      1.083114
  C       0.909062     -0.032410      2.087950
  C      -0.329117      1.516847      0.549441
  H      -1.503056      0.508922     -0.969030
  C       0.947342      1.307122      1.359526
  H      -0.274658      2.458233      0.000325
  H      -1.197016      1.550829      1.210400
  C      -0.550851     -0.969703      0.282236
  H       0.074451     -0.041507      2.793064
  H       1.833033     -0.176379      2.651024
  C      -0.534669      0.377208     -0.452598
  H      -1.418391     -0.977930      0.945581
  H      -0.687603     -1.780686     -0.437057
  H       1.796158      1.323806      0.674543
  H       1.061923      2.123478      2.074972
  H       1.579043     -1.172886      0.392972
  H       0.699736     -2.129939      1.595902
  O       0.507007      0.471358     -1.416864
  C       0.294967     -0.254443     -2.599859
  H      -0.682626     -0.021935     -3.040993
  H       1.084964      0.045313     -3.286400
  H       0.347087     -1.336927     -2.437347
22
Coordinates from ORCA-job opt+numfreq E -26.215261480690
  C       0.732568     -1.166953      1.084241
  C       0.907397     -0.032333      2.088595
  C      -0.329187      1.516340      0.548359
  H      -1.501270      0.510722     -0.970072
  C       0.946377      1.307004      1.359508
  H      -0.272869      2.458224      0.000269
  H      -1.196271      1.551621      1.210414
  C      -0.550199     -0.971382      0.282185
  H       0.072978     -0.040773      2.794183
  H       1.830870     -0.175441      2.652903
  C      -0.533499      0.376256     -0.453699
  H      -1.416287     -0.979919      0.947390
  H      -0.681534     -1.784317     -0.435356
  H       1.796815      1.323866      0.676197
  H       1.061210      2.123553      2.074893
  H       1.580528     -1.173271      0.396146
  H       0.700822     -2.129727      1.598636
  O       0.506894      0.470720     -1.418860
  C       0.292069     -0.254080     -2.602526
  H      -0.683736     -0.013804     -3.044172
  H       1.083936      0.042576     -3.287884
  H       0.342032     -1.336930     -2.440448
22
Coordinates from ORCA-job opt+numfreq E -26.215281070500
  C       0.732402     -1.166924      1.085056
  C       0.906121     -0.032100      2.089428
  C      -0.329869      1.514856      0.547091
  H      -1.499781      0.512638     -0.971413
  C       0.945051      1.306972      1.359801
  H      -0.271841      2.457434      0.000371
  H      -1.195688      1.551182      1.210606
  C      -0.549797     -0.972719      0.281260
  H       0.072441     -0.039940      2.796047
  H       1.829283     -0.174067      2.654898
  C      -0.532456      0.374702     -0.455137
  H      -1.413753     -0.981361      0.948615
  H      -0.673847     -1.787871     -0.434403
  H       1.797674      1.324611      0.678938
  H       1.059896      2.123715      2.075222
  H       1.582870     -1.172853      0.399839
  H       0.702531     -2.128910      1.601173
  O       0.506901      0.469051     -1.420638
  C       0.288258     -0.254164     -2.605424
  H      -0.683206     -0.001024     -3.048910
  H       1.084939      0.035650     -3.288382
  H       0.331512     -1.336925     -2.443138
22
Coordinates from ORCA-job opt+numfreq E -26.215281987160
  C       0.732540     -1.166786      1.085314
  C       0.906392     -0.031899      2.089627
  C      -0.330119      1.514285      0.546877
  H      -1.499870      0.512123     -0.971443
  C       0.944872      1.307118      1.359810
  H      -0.272323      2.456865      0.000094
  H      -1.195788      1.550426      1.210536
  C      -0.549809     -0.972911      0.281285
  H       0.072987     -0.039701      2.796578
  H       1.829669     -0.173676      2.654952
  C      -0.532419      0.374044     -0.455198
  H      -1.413537     -0.981466      0.948790
  H      -0.673114     -1.788400     -0.434115
  H       1.797728      1.325015      0.679257
  H       1.059384      2.124043      2.075076
  H       1.583222     -1.172756      0.400379
  H       0.702734     -2.128703      1.601576
  O       0.507212      0.468261     -1.420430
  C       0.287849     -0.253855     -2.605970
  H      -0.681958      0.003012     -3.050574
  H       1.086630      0.033535     -3.287650
  H       0.327361     -1.336623     -2.443870
