23
 energy: -30.654869036427 gnorm: 0.000999584346 xtb: 6.3.2 (30e43eb)
C         1.71535028578613   -1.44702315461388    0.04330494619144
C         2.43980190903440   -0.12749531637103    0.29499396543951
C         1.68661779885741    0.70602319427106   -1.94797706595553
H        -0.07522557386992   -0.50796884324260   -1.74945205324569
C         1.74976774493791    1.00977826580844   -0.45344945543683
H         2.70323481560434    0.62110626900114   -2.33920325659529
H         1.17462786030443    1.51065704656495   -2.47969125771431
C         1.65660026440003   -1.74716221818389   -1.45198284609773
H         2.44746199824982    0.08899466331879    1.36487791200435
H         3.47516455017317   -0.21073538440100   -0.04408284207915
C         0.93207607501803   -0.60851718997771   -2.17667084776848
H         1.12614614328672   -2.68460176617820   -1.63144937124354
H         2.67386706573106   -1.84113951708613   -1.83790722947050
H         2.28597031020698    1.94728663583727   -0.29021631023775
H         0.73446661456911    1.13363241867126   -0.06580062594945
H         2.22494431133193   -2.26107055277373    0.56378655710626
H         0.69860576787148   -1.38217422419780    0.44005138134997
Br       -3.22688199750297    0.10359169443472    1.49770455891446
C         1.76467796687378   -1.13826086211284   -4.38698290555711
O         0.65745775792796   -0.87527061325919   -3.54794053591986
H         2.48491783710537   -0.31604460143103   -4.38160013892341
H         2.26811346801819   -2.06966037783372   -4.11102772729110
H         1.34540963891941   -1.23964980951434   -5.38652038073764
