23
Coordinates from ORCA-job optts+numfreq_TSOpt_IRC_F E -30.560535545480
  C       0.245154     -0.819033      1.748007
  C       0.910687      0.544382      1.879371
  C      -0.365503      1.407102     -0.106606
  H      -1.359560     -0.212253     -1.310765
  C      -0.042039      1.619570      1.373562
  H       0.521610      1.651716     -0.701554
  H      -1.167011      2.081669     -0.420181
  C      -0.059658     -1.133924      0.281741
  H       1.167451      0.734121      2.923804
  H       1.826422      0.561614      1.283527
  C      -0.715542     -0.007507     -0.471186
  H      -0.671505     -2.038473      0.210158
  H       0.889576     -1.334871     -0.226242
  H       0.398628      2.611431      1.492026
  H      -0.964090      1.588107      1.957845
  H       0.892511     -1.605405      2.142450
  H      -0.682362     -0.825487      2.324056
  Br     -2.868068     -0.100283      0.704618
  C       0.403680     -0.955328     -3.026448
  O       0.617732     -0.013797     -2.073419
  H       0.322659     -1.979724     -2.604341
  H      -0.526265     -0.773803     -3.610434
  H       1.238682     -0.970376     -3.749092
23
Coordinates from ORCA-job optts+numfreq_TSOpt_IRC_F E -30.565467206020
  C       0.244583     -0.818420      1.745128
  C       0.910308      0.544155      1.878619
  C      -0.363567      1.405932     -0.111684
  H      -1.367053     -0.212965     -1.307870
  C      -0.042345      1.618081      1.370927
  H       0.524757      1.656099     -0.702193
  H      -1.166522      2.079684     -0.420563
  C      -0.057568     -1.134235      0.276507
  H       1.167083      0.734076      2.923370
  H       1.826672      0.561628      1.283644
  C      -0.658410     -0.006973     -0.511523
  H      -0.671721     -2.036642      0.209474
  H       0.893532     -1.338451     -0.225574
  H       0.397901      2.610639      1.491705
  H      -0.964216      1.587319      1.956693
  H       0.891644     -1.604786      2.141975
  H      -0.682562     -0.825133      2.322935
  Br     -2.902283     -0.102178      0.721670
  C       0.398935     -0.955606     -3.021079
  O       0.601082     -0.014407     -2.046270
  H       0.322772     -1.978889     -2.604154
  H      -0.525998     -0.773090     -3.608380
  H       1.236166     -0.966391     -3.742460
23
Coordinates from ORCA-job optts+numfreq_TSOpt_IRC_F E -30.572635455150
  C       0.244072     -0.817255      1.742853
  C       0.910507      0.544131      1.878158
  C      -0.358033      1.406339     -0.117165
  H      -1.376431     -0.213173     -1.300036
  C      -0.042399      1.616112      1.369072
  H       0.528461      1.664185     -0.701696
  H      -1.166462      2.075801     -0.421106
  C      -0.051922     -1.135383      0.271501
  H       1.166555      0.733971      2.922883
  H       1.826939      0.561659      1.283716
  C      -0.612853     -0.008625     -0.555811
  H      -0.672739     -2.033307      0.208124
  H       0.899085     -1.345241     -0.222474
  H       0.397106      2.609877      1.490916
  H      -0.964387      1.586369      1.955010
  H       0.890737     -1.604416      2.141063
  H      -0.682802     -0.824768      2.321116
  Br     -2.931687     -0.104032      0.734800
  C       0.392983     -0.957268     -3.015919
  O       0.585883     -0.015329     -2.022770
  H       0.322374     -1.978570     -2.603475
  H      -0.525817     -0.771872     -3.605307
  H       1.234019     -0.959756     -3.732555
23
Coordinates from ORCA-job optts+numfreq_TSOpt_IRC_F E -30.582226837620
  C       0.243638     -0.815818      1.739880
  C       0.910556      0.544029      1.877733
  C      -0.353196      1.404687     -0.124317
  H      -1.387936     -0.213749     -1.292327
  C      -0.042388      1.613749      1.366635
  H       0.533631      1.674626     -0.701398
  H      -1.166182      2.070897     -0.421644
  C      -0.047357     -1.135410      0.264398
  H       1.166016      0.733877      2.922514
  H       1.827480      0.561715      1.283715
  C      -0.562836     -0.009838     -0.599674
  H      -0.673735     -2.029111      0.206483
  H       0.906598     -1.353980     -0.218853
  H       0.396050      2.608749      1.489788
  H      -0.964545      1.585155      1.952824
  H       0.889530     -1.603920      2.139774
  H      -0.683139     -0.824304      2.318768
  Br     -2.960322     -0.105919      0.746856
  C       0.386955     -0.958508     -3.009532
  O       0.567630     -0.016147     -1.995762
  H       0.321417     -1.978922     -2.602477
  H      -0.526315     -0.770540     -3.601772
  H       1.231637     -0.951872     -3.720713
23
Coordinates from ORCA-job optts+numfreq_TSOpt_IRC_F E -30.592262014180
  C       0.242686     -0.815064      1.736517
  C       0.910987      0.543984      1.876937
  C      -0.345218      1.405638     -0.128909
  H      -1.390786     -0.212521     -1.279349
  C      -0.042937      1.611661      1.363578
  H       0.537664      1.684646     -0.700758
  H      -1.166538      2.066003     -0.422552
  C      -0.039200     -1.136349      0.260336
  H       1.165503      0.733795      2.922274
  H       1.827875      0.561776      1.283862
  C      -0.530825     -0.014269     -0.648261
  H      -0.675265     -2.025239      0.204494
  H       0.912797     -1.362454     -0.214980
  H       0.395010      2.607578      1.488524
  H      -0.964573      1.583949      1.950590
  H       0.888319     -1.603413      2.138344
  H      -0.683304     -0.823829      2.316350
  Br     -2.984924     -0.107568      0.756995
  C       0.380836     -0.959453     -3.002564
  O       0.551991     -0.016464     -1.971227
  H       0.320339     -1.979326     -2.601535
  H      -0.526901     -0.769347     -3.598277
  H       1.229654     -0.944288     -3.709492
23
Coordinates from ORCA-job optts+numfreq_TSOpt_IRC_F E -30.602055907100
  C       0.241852     -0.814025      1.732588
  C       0.911317      0.543890      1.876155
  C      -0.337691      1.405121     -0.135224
  H      -1.395362     -0.211771     -1.267493
  C      -0.043324      1.609168      1.360040
  H       0.542749      1.696263     -0.700338
  H      -1.166580      2.060349     -0.423521
  C      -0.031776     -1.136656      0.254350
  H       1.164897      0.733692      2.921953
  H       1.828412      0.561847      1.283974
  C      -0.495171     -0.018024     -0.694303
  H      -0.676637     -2.020754      0.202246
  H       0.920398     -1.372244     -0.210888
  H       0.393778      2.606165      1.487002
  H      -0.964692      1.582509      1.947963
  H       0.886897     -1.602822      2.136650
  H      -0.683607     -0.823275      2.313518
  Br     -3.010120     -0.109297      0.767051
  C       0.374441     -0.960120     -2.994576
  O       0.534980     -0.016815     -1.944958
  H       0.318914     -1.980029     -2.600328
  H      -0.527836     -0.767989     -3.594236
  H       1.227349     -0.935737     -3.696726
23
Coordinates from ORCA-job optts+numfreq_TSOpt_IRC_F E -30.610106952320
  C       0.241297     -0.812504      1.727635
  C       0.911397      0.543696      1.875267
  C      -0.329994      1.402743     -0.144806
  H      -1.401505     -0.211482     -1.255936
  C      -0.043362      1.605939      1.355636
  H       0.549792      1.711310     -0.700244
  H      -1.165940      2.052912     -0.424812
  C      -0.024707     -1.136514      0.245123
  H       1.164064      0.733541      2.921447
  H       1.829287      0.561940      1.284025
  C      -0.459466     -0.021079     -0.733123
  H      -0.677666     -2.014851      0.199256
  H       0.930762     -1.384915     -0.206194
  H       0.392130      2.604222      1.484889
  H      -0.964915      1.580517      1.944336
  H       0.885016     -1.602041      2.134365
  H      -0.684136     -0.822545      2.309643
  Br     -3.037089     -0.111209      0.777267
  C       0.367936     -0.959622     -2.984379
  O       0.518853     -0.017725     -1.920460
  H       0.316734     -1.981472     -2.598408
  H      -0.529587     -0.766213     -3.588936
  H       1.224288     -0.925204     -3.680695
23
Coordinates from ORCA-job optts+numfreq_TSOpt_IRC_F E -30.616071531280
  C       0.240604     -0.811269      1.720143
  C       0.911927      0.543411      1.873507
  C      -0.318312      1.400735     -0.155522
  H      -1.403030     -0.210397     -1.239883
  C      -0.043424      1.601924      1.348467
  H       0.559070      1.732039     -0.700442
  H      -1.164896      2.042251     -0.427502
  C      -0.013514     -1.136829      0.235178
  H       1.162714      0.733289      2.920660
  H       1.830494      0.562083      1.284256
  C      -0.438108     -0.025641     -0.764885
  H      -0.678946     -2.007006      0.194295
  H       0.944374     -1.402550     -0.199976
  H       0.389735      2.601284      1.481543
  H      -0.965178      1.577370      1.938428
  H       0.882299     -1.600912      2.130872
  H      -0.684850     -0.821455      2.303373
  Br     -3.069349     -0.113571      0.788838
  C       0.360039     -0.958773     -2.971034
  O       0.510272     -0.018402     -1.904096
  H       0.313307     -1.983453     -2.595270
  H      -0.532509     -0.763650     -3.580908
  H       1.220468     -0.911034     -3.659145
23
Coordinates from ORCA-job optts+numfreq_TSOpt_IRC_F E -30.620870397150
  C       0.241397     -0.809939      1.712016
  C       0.912114      0.542801      1.870725
  C      -0.308287      1.398676     -0.167391
  H      -1.407968     -0.210484     -1.225398
  C      -0.042127      1.597766      1.340498
  H       0.570201      1.756700     -0.701703
  H      -1.162045      2.028336     -0.432078
  C      -0.003814     -1.138870      0.224411
  H       1.160344      0.732794      2.918957
  H       1.832793      0.562291      1.284371
  C      -0.421679     -0.025408     -0.767693
  H      -0.679007     -1.997309      0.187069
  H       0.960875     -1.424219     -0.193509
  H       0.386546      2.597448      1.476635
  H      -0.965428      1.572443      1.928691
  H       0.878789     -1.599703      2.126109
  H      -0.685941     -0.819905      2.293229
  Br     -3.106791     -0.116431      0.801472
  C       0.353702     -0.957371     -2.958632
  O       0.512503     -0.019525     -1.904059
  H       0.308287     -1.986160     -2.589814
  H      -0.537440     -0.760156     -3.569598
  H       1.216164     -0.894332     -3.633411
23
Coordinates from ORCA-job optts+numfreq_TSOpt_IRC_F E -30.624695217010
  C       0.242795     -0.810408      1.704773
  C       0.913757      0.542162      1.866691
  C      -0.295079      1.401598     -0.172183
  H      -1.402653     -0.208936     -1.207544
  C      -0.040443      1.595429      1.332918
  H       0.576953      1.777884     -0.703057
  H      -1.160441      2.015551     -0.439362
  C       0.010121     -1.141650      0.220472
  H       1.156828      0.731984      2.916118
  H       1.835927      0.562521      1.284482
  C      -0.413942     -0.025749     -0.772311
  H      -0.679821     -1.990146      0.177995
  H       0.972583     -1.444453     -0.187961
  H       0.383897      2.595062      1.471518
  H      -0.966155      1.565905      1.915964
  H       0.876178     -1.599867      2.122003
  H      -0.687668     -0.817966      2.279873
  Br     -3.145426     -0.119514      0.813818
  C       0.347528     -0.958504     -2.949552
  O       0.514159     -0.017033     -1.899950
  H       0.302754     -1.987622     -2.583047
  H      -0.544103     -0.756779     -3.557365
  H       1.215442     -0.880021     -3.613393
23
Coordinates from ORCA-job optts+numfreq_TSOpt_IRC_F E -30.627951530350
  C       0.245733     -0.810786      1.698721
  C       0.915480      0.541351      1.862499
  C      -0.285780      1.403227     -0.179219
  H      -1.399534     -0.207672     -1.190034
  C      -0.037455      1.593793      1.326806
  H       0.583549      1.798434     -0.705538
  H      -1.158064      2.003179     -0.447523
  C       0.020008     -1.145030      0.214320
  H       1.152743      0.731010      2.912796
  H       1.840435      0.562753      1.284173
  C      -0.397865     -0.023693     -0.767274
  H      -0.679267     -1.982940      0.168238
  H       0.984215     -1.464900     -0.183830
  H       0.381757      2.594405      1.467302
  H      -0.967711      1.558002      1.901243
  H       0.874303     -1.601267      2.119448
  H      -0.690407     -0.815720      2.264181
  Br     -3.187655     -0.123019      0.826587
  C       0.343333     -0.956904     -2.939958
  O       0.515627     -0.015622     -1.898280
  H       0.296954     -1.988075     -2.574899
  H      -0.551330     -0.753508     -3.543719
  H       1.214117     -0.867569     -3.595144
23
Coordinates from ORCA-job optts+numfreq_TSOpt_IRC_F E -30.630595294390
  C       0.248820     -0.812541      1.692710
  C       0.917887      0.540627      1.857896
  C      -0.274978      1.407340     -0.182967
  H      -1.391686     -0.205419     -1.170414
  C      -0.034666      1.593404      1.320190
  H       0.588076      1.816152     -0.708800
  H      -1.156142      1.992434     -0.456399
  C       0.032501     -1.149202      0.211643
  H       1.148773      0.729969      2.909545
  H       1.845406      0.562974      1.284009
  C      -0.387551     -0.022855     -0.766575
  H      -0.678812     -1.977532      0.158247
  H       0.993281     -1.483746     -0.181298
  H       0.379788      2.594727      1.464844
  H      -0.969461      1.549528      1.885879
  H       0.872633     -1.603049      2.118837
  H      -0.693352     -0.813363      2.247384
  Br     -3.231409     -0.126843      0.839035
  C       0.339349     -0.956117     -2.931823
  O       0.518928     -0.011606     -1.894414
  H       0.291797     -1.986536     -2.565935
  H      -0.558274     -0.750455     -3.529568
  H       1.212277     -0.858444     -3.581128
23
Coordinates from ORCA-job optts+numfreq_TSOpt_IRC_F E -30.632801257640
  C       0.252569     -0.813922      1.687406
  C       0.920433      0.539880      1.853488
  C      -0.265687      1.410382     -0.188718
  H      -1.385471     -0.203384     -1.151768
  C      -0.031315      1.593092      1.314828
  H       0.592529      1.832558     -0.713208
  H      -1.153633      1.983070     -0.465353
  C       0.043211     -1.153051      0.206488
  H       1.144908      0.728824      2.905919
  H       1.850827      0.563199      1.283958
  C      -0.372939     -0.020669     -0.760148
  H      -0.677123     -1.972963      0.148432
  H       1.002409     -1.502019     -0.180531
  H       0.377703      2.595798      1.464444
  H      -0.971397      1.540505      1.869907
  H       0.870943     -1.605033      2.120460
  H      -0.696571     -0.810887      2.229472
  Br     -3.278882     -0.131240      0.851719
  C       0.336428     -0.953436     -2.922746
  O       0.523061     -0.008275     -1.892908
  H       0.287215     -1.983735     -2.555235
  H      -0.565418     -0.747080     -3.514413
  H       1.209386     -0.852167     -3.570593
23
Coordinates from ORCA-job optts+numfreq_TSOpt_IRC_F E -30.634560094370
  C       0.256249     -0.815902      1.682324
  C       0.922799      0.539131      1.849055
  C      -0.256455      1.415294     -0.191953
  H      -1.377605     -0.201038     -1.133970
  C      -0.028376      1.593413      1.309666
  H       0.596741      1.846313     -0.718418
  H      -1.149972      1.975424     -0.473716
  C       0.054834     -1.158015      0.204019
  H       1.141786      0.727712      2.902892
  H       1.856244      0.563465      1.284100
  C      -0.360751     -0.018811     -0.759244
  H      -0.674041     -1.969349      0.139243
  H       1.010784     -1.517967     -0.181596
  H       0.375202      2.596665      1.466276
  H      -0.973022      1.531542      1.854682
  H       0.868612     -1.606241      2.123695
  H      -0.699396     -0.808335      2.211593
  Br     -3.328386     -0.136111      0.864077
  C       0.334051     -0.951647     -2.915945
  O       0.527785     -0.003150     -1.889390
  H       0.283674     -1.979871     -2.543213
  H      -0.572424     -0.743639     -3.498991
  H       1.204856     -0.849438     -3.564288
23
Coordinates from ORCA-job optts+numfreq_TSOpt_IRC_F E -30.635989983200
  C       0.260043     -0.817086      1.677070
  C       0.925720      0.538567      1.845659
  C      -0.247337      1.418419     -0.196369
  H      -1.369321     -0.198722     -1.119069
  C      -0.025147      1.593225      1.305218
  H       0.601887      1.858325     -0.723524
  H      -1.145377      1.970290     -0.481338
  C       0.065849     -1.161065      0.199027
  H       1.139293      0.726513      2.899987
  H       1.861094      0.563818      1.284501
  C      -0.349173     -0.016829     -0.754381
  H      -0.669251     -1.966863      0.130879
  H       1.019681     -1.531552     -0.183672
  H       0.372415      2.597727      1.470305
  H      -0.975056      1.522512      1.840843
  H       0.866134     -1.607240      2.128587
  H      -0.702747     -0.805573      2.194343
  Br     -3.381383     -0.141631      0.876262
  C       0.331856     -0.949359     -2.908739
  O       0.534022      0.001333     -1.889630
  H       0.280944     -1.975327     -2.529990
  H      -0.579864     -0.740396     -3.483180
  H       1.198908     -0.849641     -3.561892
23
Coordinates from ORCA-job optts+numfreq_TSOpt_IRC_F E -30.637168397350
  C       0.263422     -0.818090      1.673344
  C       0.927662      0.537960      1.842892
  C      -0.238207      1.423252     -0.198743
  H      -1.361151     -0.196670     -1.107777
  C      -0.022519      1.593396      1.302455
  H       0.607972      1.867352     -0.727417
  H      -1.139018      1.967178     -0.487985
  C       0.077319     -1.164258      0.196341
  H       1.137723      0.725235      2.897893
  H       1.865873      0.564367      1.284915
  C      -0.336039     -0.014256     -0.754579
  H      -0.662472     -1.965293      0.122942
  H       1.029219     -1.541085     -0.186459
  H       0.368973      2.597973      1.475534
  H      -0.976428      1.513611      1.828466
  H       0.862721     -1.607295      2.133286
  H      -0.705370     -0.802617      2.177575
  Br     -3.437783     -0.147614      0.887688
  C       0.329475     -0.947714     -2.902612
  O       0.539745      0.005869     -1.889568
  H       0.278869     -1.971063     -2.516492
  H      -0.588069     -0.738302     -3.467803
  H       1.191272     -0.852490     -3.562998
23
Coordinates from ORCA-job optts+numfreq_TSOpt_IRC_F E -30.638109949870
  C       0.266122     -0.818694      1.668068
  C       0.930245      0.537934      1.841938
  C      -0.229719      1.424627     -0.202297
  H      -1.351056     -0.194313     -1.100439
  C      -0.020173      1.592786      1.299618
  H       0.616363      1.874770     -0.728959
  H      -1.131578      1.966751     -0.493419
  C       0.087524     -1.164497      0.190306
  H       1.137258      0.724133      2.897295
  H       1.869530      0.565076      1.285620
  C      -0.326026     -0.011909     -0.750866
  H      -0.653083     -1.963999      0.115697
  H       1.039679     -1.545993     -0.188070
  H       0.365662      2.598831      1.481820
  H      -0.978658      1.505400      1.819387
  H       0.859788     -1.607794      2.138224
  H      -0.708947     -0.799566      2.163922
  Br     -3.495535     -0.153722      0.897301
  C       0.326634     -0.947775     -2.898858
  O       0.546234      0.010095     -1.891156
  H       0.277270     -1.967504     -2.504176
  H      -0.596569     -0.738098     -3.453389
  H       1.182222     -0.857095     -3.566668
23
Coordinates from ORCA-job optts+numfreq_TSOpt_IRC_F E -30.638286158670
  C       0.266837     -0.818468      1.668310
  C       0.930215      0.537828      1.841932
  C      -0.227900      1.426188     -0.201855
  H      -1.350516     -0.193909     -1.099660
  C      -0.019652      1.592816      1.299986
  H       0.618184      1.875510     -0.728802
  H      -1.129661      1.966877     -0.494521
  C       0.089872     -1.164972      0.190899
  H       1.137134      0.723772      2.896872
  H       1.870177      0.565275      1.285894
  C      -0.323415     -0.011181     -0.752485
  H      -0.651055     -1.964197      0.113913
  H       1.042203     -1.545953     -0.188520
  H       0.364703      2.598508      1.482862
  H      -0.978812      1.503926      1.817679
  H       0.858762     -1.607557      2.138527
  H      -0.709157     -0.799029      2.161152
  Br     -3.506727     -0.155015      0.898978
  C       0.326006     -0.947713     -2.897863
  O       0.547292      0.010531     -1.891822
  H       0.277042     -1.967165     -2.502058
  H      -0.598469     -0.738433     -3.450797
  H       1.180124     -0.858191     -3.567725
23
Coordinates from ORCA-job optts+numfreq_TSOpt_IRC_F E -30.638457581070
  C       0.267083     -0.818499      1.667933
  C       0.930573      0.537758      1.841737
  C      -0.225695      1.427257     -0.202015
  H      -1.349170     -0.193318     -1.098737
  C      -0.019611      1.592767      1.300067
  H       0.620113      1.876299     -0.728435
  H      -1.127659      1.967203     -0.495609
  C       0.092438     -1.165044      0.190503
  H       1.137124      0.723513      2.896978
  H       1.870810      0.565493      1.286216
  C      -0.321406     -0.010671     -0.753349
  H      -0.648664     -1.964296      0.112151
  H       1.044662     -1.545698     -0.188736
  H       0.363844      2.598458      1.484111
  H      -0.978981      1.502390      1.816006
  H       0.857938     -1.607514      2.139106
  H      -0.709475     -0.798427      2.158459
  Br     -3.518471     -0.156399      0.900717
  C       0.325188     -0.947852     -2.896924
  O       0.548233      0.011058     -1.892300
  H       0.276814     -1.966796     -2.499871
  H      -0.600513     -0.738861     -3.448067
  H       1.178014     -0.859376     -3.569044
23
Coordinates from ORCA-job optts+numfreq_TSOpt_IRC_F E -30.638653406340
  C       0.267080     -0.818426      1.667315
  C       0.931463      0.537756      1.841360
  C      -0.222787      1.428056     -0.202572
  H      -1.347286     -0.192527     -1.097615
  C      -0.019829      1.592468      1.300198
  H       0.622536      1.877230     -0.727865
  H      -1.125348      1.967830     -0.496939
  C       0.095632     -1.164791      0.189449
  H       1.137104      0.723219      2.897241
  H       1.871287      0.565757      1.286784
  C      -0.319590     -0.010122     -0.753563
  H      -0.645701     -1.964508      0.110041
  H       1.047606     -1.545173     -0.188872
  H       0.362902      2.598609      1.485693
  H      -0.979191      1.500599      1.814062
  H       0.857106     -1.607634      2.139912
  H      -0.709910     -0.797735      2.155355
  Br     -3.532477     -0.158088      0.902760
  C       0.324058     -0.948292     -2.896065
  O       0.549544      0.011852     -1.893036
  H       0.276562     -1.966346     -2.497331
  H      -0.602957     -0.739492     -3.444780
  H       1.175384     -0.860798     -3.570636
