23
Coordinates from ORCA-job optts+numfreq_TSOpt_IRC_B E -30.560196240000
  C       0.248961     -0.822382      1.756322
  C       0.910817      0.544987      1.882486
  C      -0.387898      1.398476     -0.086617
  H      -1.288195     -0.202646     -1.329188
  C      -0.040299      1.625524      1.381422
  H       0.496511      1.552411     -0.710940
  H      -1.152640      2.109111     -0.415685
  C      -0.083573     -1.123138      0.297674
  H       1.174243      0.735144      2.924805
  H       1.823451      0.561313      1.282334
  C      -0.856253     -0.006581     -0.356910
  H      -0.645760     -2.059644      0.216447
  H       0.844563     -1.239252     -0.270047
  H       0.413138      2.613089      1.489066
  H      -0.956009      1.606404      1.978279
  H       0.909622     -1.604373      2.137072
  H      -0.669088     -0.837092      2.348948
  Br     -2.851531     -0.099318      0.695999
  C       0.418728     -0.956782     -3.047403
  O       0.654531     -0.018474     -2.134272
  H       0.314271     -1.988878     -2.614269
  H      -0.525115     -0.784233     -3.636988
  H       1.234335     -1.033112     -3.809431
23
Coordinates from ORCA-job optts+numfreq_TSOpt_IRC_B E -30.563213904240
  C       0.248889     -0.822166      1.758467
  C       0.911112      0.545251      1.883262
  C      -0.394758      1.394834     -0.082223
  H      -1.283854     -0.201142     -1.322077
  C      -0.040751      1.626075      1.383669
  H       0.490545      1.545288     -0.708071
  H      -1.152373      2.110760     -0.415610
  C      -0.091083     -1.119168      0.300886
  H       1.174520      0.735204      2.925317
  H       1.823396      0.561336      1.282154
  C      -0.898180     -0.006645     -0.325407
  H      -0.644705     -2.060381      0.216849
  H       0.837013     -1.233023     -0.269823
  H       0.413596      2.613742      1.489006
  H      -0.955639      1.607201      1.979542
  H       0.910313     -1.604968      2.137138
  H      -0.668647     -0.837446      2.350117
  Br     -2.810910     -0.097165      0.675499
  C       0.422373     -0.957231     -3.054135
  O       0.672642     -0.018157     -2.156848
  H       0.314010     -1.990358     -2.614952
  H      -0.526569     -0.784852     -3.639047
  H       1.235872     -1.036433     -3.814611
23
Coordinates from ORCA-job optts+numfreq_TSOpt_IRC_B E -30.566500698960
  C       0.248632     -0.822996      1.760905
  C       0.910689      0.545325      1.883767
  C      -0.402055      1.394278     -0.076226
  H      -1.271491     -0.198573     -1.314946
  C      -0.041507      1.627712      1.385839
  H       0.482613      1.531429     -0.707273
  H      -1.152854      2.114386     -0.414420
  C      -0.098133     -1.118063      0.306475
  H       1.175152      0.735387      2.925883
  H       1.822985      0.561365      1.282113
  C      -0.937375     -0.007466     -0.298986
  H      -0.644042     -2.063061      0.218624
  H       0.826103     -1.221176     -0.273897
  H       0.413898      2.613953      1.488990
  H      -0.955794      1.608633      1.983214
  H       0.910717     -1.605051      2.137022
  H      -0.668568     -0.837781      2.353819
  Br     -2.773588     -0.094719      0.658201
  C       0.428853     -0.953789     -3.057276
  O       0.688941     -0.014532     -2.174731
  H       0.313779     -1.992323     -2.616290
  H      -0.528458     -0.786311     -3.643013
  H       1.238312     -1.046073     -3.828693
23
Coordinates from ORCA-job optts+numfreq_TSOpt_IRC_B E -30.569315765420
  C       0.248213     -0.823575      1.763452
  C       0.909697      0.545591      1.885172
  C      -0.410545      1.391072     -0.069419
  H      -1.256365     -0.195568     -1.307226
  C      -0.042301      1.629037      1.388232
  H       0.471982      1.512926     -0.706599
  H      -1.153745      2.119619     -0.412449
  C      -0.107222     -1.114569      0.311941
  H       1.175870      0.735524      2.925966
  H       1.822081      0.561334      1.281919
  C      -0.971461     -0.007661     -0.272498
  H      -0.643204     -2.067098      0.221460
  H       0.811735     -1.205407     -0.279650
  H       0.414460      2.614730      1.489339
  H      -0.956059      1.610911      1.988812
  H       0.911577     -1.605506      2.137429
  H      -0.668379     -0.838361      2.359491
  Br     -2.739017     -0.092223      0.642352
  C       0.435817     -0.952044     -3.064827
  O       0.708472     -0.010701     -2.195969
  H       0.314620     -1.991650     -2.617992
  H      -0.527674     -0.787716     -3.646156
  H       1.238259     -1.058112     -3.843678
23
Coordinates from ORCA-job optts+numfreq_TSOpt_IRC_B E -30.571367383520
  C       0.246398     -0.823898      1.768682
  C       0.908702      0.545660      1.886188
  C      -0.420282      1.390240     -0.061434
  H      -1.238461     -0.192040     -1.299152
  C      -0.044802      1.630651      1.393638
  H       0.458023      1.486873     -0.706172
  H      -1.154042      2.124750     -0.407897
  C      -0.116431     -1.113181      0.319111
  H       1.177296      0.735968      2.927266
  H       1.819840      0.561254      1.281831
  C      -0.985176     -0.006902     -0.257627
  H      -0.641462     -2.070130      0.226252
  H       0.792296     -1.182772     -0.287689
  H       0.415112      2.615454      1.489688
  H      -0.954958      1.615048      1.997274
  H       0.912558     -1.605742      2.137679
  H      -0.666596     -0.839547      2.368242
  Br     -2.728155     -0.090807      0.637044
  C       0.443930     -0.953163     -3.076579
  O       0.734153     -0.004076     -2.220808
  H       0.317175     -1.988887     -2.619775
  H      -0.526136     -0.788283     -3.650903
  H       1.237831     -1.075915     -3.865756
23
Coordinates from ORCA-job optts+numfreq_TSOpt_IRC_B E -30.573033667530
  C       0.246074     -0.823464      1.774163
  C       0.907747      0.546361      1.889910
  C      -0.426172      1.387525     -0.053165
  H      -1.223790     -0.189360     -1.295766
  C      -0.045476      1.632023      1.399453
  H       0.448334      1.463171     -0.706480
  H      -1.155264      2.128617     -0.401717
  C      -0.122780     -1.108638      0.325571
  H       1.179528      0.736527      2.928838
  H       1.816097      0.561120      1.281778
  C      -0.997922     -0.006229     -0.245280
  H      -0.640556     -2.071682      0.231822
  H       0.778075     -1.160709     -0.295812
  H       0.416224      2.616638      1.490846
  H      -0.954126      1.620479      2.008391
  H       0.914299     -1.606123      2.138690
  H      -0.664739     -0.841284      2.379544
  Br     -2.738688     -0.091122      0.637895
  C       0.453779     -0.954173     -3.092777
  O       0.761730     -0.000604     -2.249695
  H       0.321776     -1.983281     -2.621497
  H      -0.521423     -0.787832     -3.655535
  H       1.234085     -1.097405     -3.890072
23
Coordinates from ORCA-job optts+numfreq_TSOpt_IRC_B E -30.574358279240
  C       0.245203     -0.823329      1.778893
  C       0.906689      0.547035      1.894464
  C      -0.433247      1.384389     -0.045266
  H      -1.217554     -0.186874     -1.289376
  C      -0.046885      1.633468      1.404600
  H       0.438338      1.442934     -0.703133
  H      -1.154517      2.130760     -0.394500
  C      -0.129866     -1.103995      0.331672
  H       1.183488      0.737729      2.933296
  H       1.813082      0.561246      1.281889
  C      -1.009549     -0.005693     -0.235404
  H      -0.637949     -2.070435      0.237270
  H       0.764067     -1.140179     -0.298977
  H       0.417743      2.616927      1.492439
  H      -0.951454      1.626314      2.018515
  H       0.916129     -1.605154      2.139386
  H      -0.661056     -0.843320      2.389846
  Br     -2.751108     -0.092434      0.634933
  C       0.462966     -0.956994     -3.106687
  O       0.791044      0.003874     -2.278701
  H       0.327265     -1.978766     -2.624147
  H      -0.517887     -0.786146     -3.662922
  H       1.231868     -1.120803     -3.918987
23
Coordinates from ORCA-job optts+numfreq_TSOpt_IRC_B E -30.575369338910
  C       0.245080     -0.821461      1.786005
  C       0.906905      0.548207      1.899452
  C      -0.438014      1.382365     -0.037154
  H      -1.217940     -0.185495     -1.285026
  C      -0.047181      1.634461      1.412472
  H       0.431854      1.426937     -0.699561
  H      -1.156180      2.134226     -0.387780
  C      -0.134762     -1.099256      0.337838
  H       1.187182      0.738640      2.936077
  H       1.810651      0.561748      1.283519
  C      -1.022246     -0.004959     -0.226655
  H      -0.637189     -2.071036      0.242272
  H       0.754916     -1.122353     -0.300594
  H       0.419861      2.617032      1.493167
  H      -0.950231      1.631693      2.029251
  H       0.918726     -1.604247      2.139008
  H      -0.659043     -0.845083      2.400724
  Br     -2.766629     -0.094412      0.632078
  C       0.472645     -0.959625     -3.126237
  O       0.820371      0.004931     -2.309015
  H       0.333078     -1.973457     -2.628070
  H      -0.511078     -0.784668     -3.668479
  H       1.226035     -1.143633     -3.944188
23
Coordinates from ORCA-job optts+numfreq_TSOpt_IRC_B E -30.575616410000
  C       0.244587     -0.821479      1.786919
  C       0.906674      0.548418      1.900742
  C      -0.439457      1.380705     -0.035376
  H      -1.219029     -0.184998     -1.282761
  C      -0.047775      1.634898      1.413509
  H       0.428866      1.423315     -0.697239
  H      -1.156222      2.135210     -0.385516
  C      -0.136364     -1.097139      0.338914
  H       1.188556      0.739112      2.937793
  H       1.809899      0.561975      1.284296
  C      -1.024806     -0.004769     -0.224287
  H      -0.636436     -2.070616      0.243817
  H       0.751296     -1.117830     -0.299428
  H       0.420335      2.616957      1.493726
  H      -0.949249      1.633254      2.032251
  H       0.919234     -1.603669      2.139041
  H      -0.657753     -0.845462      2.403691
  Br     -2.770482     -0.094958      0.631166
  C       0.476227     -0.960451     -3.130279
  O       0.829460      0.005621     -2.317665
  H       0.334571     -1.973107     -2.629529
  H      -0.510692     -0.783778     -3.671384
  H       1.225371     -1.150654     -3.953298
23
Coordinates from ORCA-job optts+numfreq_TSOpt_IRC_B E -30.575730027730
  C       0.244560     -0.821043      1.787464
  C       0.906829      0.548607      1.901415
  C      -0.441130      1.381267     -0.034349
  H      -1.219534     -0.184816     -1.281869
  C      -0.047776      1.634724      1.414263
  H       0.428348      1.421818     -0.696788
  H      -1.155915      2.135141     -0.384406
  C      -0.137805     -1.097360      0.339988
  H       1.188979      0.739257      2.938278
  H       1.809521      0.562073      1.284695
  C      -1.026180     -0.004776     -0.223585
  H      -0.635979     -2.070014      0.244456
  H       0.750565     -1.115929     -0.299462
  H       0.420588      2.617052      1.493866
  H      -0.949054      1.633908      2.033549
  H       0.919551     -1.603572      2.139016
  H      -0.657470     -0.845650      2.405010
  Br     -2.772142     -0.095180      0.630928
  C       0.477479     -0.960848     -3.132476
  O       0.833264      0.005526     -2.321547
  H       0.335277     -1.972644     -2.630297
  H      -0.509959     -0.783470     -3.672283
  H       1.224796     -1.153515     -3.956763
23
Coordinates from ORCA-job optts+numfreq_TSOpt_IRC_B E -30.575922188440
  C       0.244446     -0.820475      1.788679
  C       0.906847      0.548939      1.902780
  C      -0.443412      1.381456     -0.032375
  H      -1.220619     -0.184495     -1.280279
  C      -0.047898      1.634715      1.415751
  H       0.426940      1.418957     -0.695635
  H      -1.155839      2.135524     -0.382374
  C      -0.139846     -1.096866      0.341735
  H       1.189814      0.739557      2.939276
  H       1.808996      0.562284      1.285377
  C      -1.028833     -0.004664     -0.221891
  H      -0.635413     -2.069387      0.245720
  H       0.748736     -1.112248     -0.299231
  H       0.421036      2.617137      1.494156
  H      -0.948613      1.635175      2.036153
  H       0.920109     -1.603284      2.138939
  H      -0.656841     -0.845969      2.407630
  Br     -2.775499     -0.095620      0.630534
  C       0.480014     -0.961693     -3.136917
  O       0.840904      0.005383     -2.329186
  H       0.336669     -1.971809     -2.631876
  H      -0.508556     -0.782827     -3.674128
  H       1.223668     -1.159234     -3.963734
23
Coordinates from ORCA-job optts+numfreq_TSOpt_IRC_B E -30.576110546670
  C       0.244381     -0.820201      1.790081
  C       0.906459      0.549275      1.904473
  C      -0.444696      1.380716     -0.030358
  H      -1.221920     -0.184198     -1.278771
  C      -0.048024      1.635106      1.417271
  H       0.424987      1.416076     -0.694087
  H      -1.156368      2.136496     -0.380367
  C      -0.141080     -1.095351      0.343168
  H       1.190663      0.739874      2.940294
  H       1.808737      0.562535      1.285956
  C      -1.031621     -0.004407     -0.219735
  H      -0.635206     -2.069335      0.247077
  H       0.746350     -1.108445     -0.298607
  H       0.421425      2.617080      1.494487
  H      -0.948152      1.636488      2.039035
  H       0.920593     -1.602847      2.138820
  H      -0.656154     -0.846237      2.410489
  Br     -2.779149     -0.096085      0.630260
  C       0.482788     -0.962692     -3.141818
  O       0.849254      0.005227     -2.337338
  H       0.338160     -1.971023     -2.633696
  H      -0.507079     -0.782080     -3.676186
  H       1.222463     -1.165418     -3.971346
23
Coordinates from ORCA-job optts+numfreq_TSOpt_IRC_B E -30.576279176150
  C       0.244079     -0.819657      1.791509
  C       0.906707      0.549588      1.905487
  C      -0.446598      1.380734     -0.028491
  H      -1.223279     -0.183888     -1.277102
  C      -0.048369      1.635218      1.418970
  H       0.423383      1.413552     -0.692776
  H      -1.156608      2.137062     -0.378262
  C      -0.142848     -1.094646      0.344790
  H       1.191413      0.740225      2.941515
  H       1.808063      0.562793      1.286907
  C      -1.034275     -0.004245     -0.217936
  H      -0.634833     -2.068819      0.248409
  H       0.744459     -1.104973     -0.298165
  H       0.421842      2.617192      1.494821
  H      -0.947639      1.637758      2.041655
  H       0.921145     -1.602549      2.138771
  H      -0.655450     -0.846514      2.413115
  Br     -2.782477     -0.096487      0.630224
  C       0.485469     -0.963640     -3.146549
  O       0.857324      0.004778     -2.345282
  H       0.339595     -1.970325     -2.635656
  H      -0.505565     -0.781294     -3.678178
  H       1.221275     -1.171310     -3.978673
23
Coordinates from ORCA-job optts+numfreq_TSOpt_IRC_B E -30.576438966100
  C       0.243829     -0.819310      1.792959
  C       0.906366      0.549936      1.907041
  C      -0.447947      1.380144     -0.026534
  H      -1.224843     -0.183618     -1.275558
  C      -0.048697      1.635527      1.420566
  H       0.421491      1.411179     -0.691266
  H      -1.157254      2.137983     -0.376185
  C      -0.144053     -1.093250      0.346195
  H       1.192117      0.740571      2.942641
  H       1.807811      0.563087      1.287635
  C      -1.036877     -0.003933     -0.215744
  H      -0.634739     -2.068696      0.249791
  H       0.742230     -1.101574     -0.297430
  H       0.422208      2.617255      1.495207
  H      -0.947109      1.639021      2.044400
  H       0.921626     -1.602156      2.138722
  H      -0.654711     -0.846724      2.415842
  Br     -2.785860     -0.096871      0.630378
  C       0.488281     -0.964763     -3.151609
  O       0.865836      0.004301     -2.353412
  H       0.341065     -1.969726     -2.637848
  H      -0.504009     -0.780405     -3.680312
  H       1.220052     -1.177423     -3.986378
23
Coordinates from ORCA-job optts+numfreq_TSOpt_IRC_B E -30.576581985330
  C       0.243673     -0.818806      1.794332
  C       0.906558      0.550286      1.908182
  C      -0.449716      1.380223     -0.024710
  H      -1.226447     -0.183318     -1.273776
  C      -0.048894      1.635757      1.422172
  H       0.419830      1.409139     -0.689914
  H      -1.157715      2.138577     -0.374033
  C      -0.145713     -1.092533      0.347795
  H       1.192685      0.740927      2.943826
  H       1.807182      0.563391      1.288678
  C      -1.039438     -0.003767     -0.213979
  H      -0.634539     -2.068186      0.251155
  H       0.740424     -1.098486     -0.296850
  H       0.422517      2.617343      1.495605
  H      -0.946732      1.640239      2.047036
  H       0.922091     -1.601809      2.138728
  H      -0.654120     -0.846940      2.418462
  Br     -2.788930     -0.097187      0.630798
  C       0.491035     -0.965790     -3.156503
  O       0.874114      0.003452     -2.361430
  H       0.342485     -1.969215     -2.640209
  H      -0.502388     -0.779462     -3.682395
  H       1.218849     -1.183280     -3.993868
