23
Coordinates from ORCA-job optts+numfreq_reactant E -30.577954482790
  C       1.879214     -1.369553      0.028326
  C       2.759991     -0.125851     -0.040190
  C       1.178129      0.907676     -1.678252
  H      -0.137560     -0.494158     -2.647749
  C       1.911793      1.102329     -0.355512
  H       1.895648      0.758550     -2.493025
  H       0.566543      1.784128     -1.913181
  C       1.144913     -1.565393     -1.293286
  H       3.287257      0.013621      0.905697
  H       3.498313     -0.260273     -0.835402
  C       0.329098     -0.347277     -1.670920
  H       0.512485     -2.458070     -1.256837
  H       1.861827     -1.684074     -2.117805
  H       2.544428      1.989381     -0.422889
  H       1.185088      1.263605      0.446504
  H       2.488496     -2.251855      0.234448
  H       1.152045     -1.262462      0.839396
  Br     -1.172859     -0.132961     -0.439660
  C       3.054155     -1.601541     -4.992459
  O       2.598306     -0.879971     -3.994298
  H       4.148290     -1.888164     -4.898134
  H       2.514858     -2.591293     -5.135716
  H       2.981224     -1.093008     -6.003858
23
Coordinates from ORCA-job optts+numfreq_reactant E -30.577954556710
  C       1.879181     -1.369589      0.028323
  C       2.759962     -0.125885     -0.040245
  C       1.178107      0.907538     -1.678386
  H      -0.137898     -0.494261     -2.647555
  C       1.911828      1.102313     -0.355693
  H       1.895632      0.758274     -2.493132
  H       0.566578      1.784001     -1.913436
  C       1.144841     -1.565451     -1.293270
  H       3.287203      0.013651      0.905644
  H       3.498297     -0.260374     -0.835438
  C       0.328982     -0.347346     -1.670839
  H       0.512453     -2.458157     -1.256840
  H       1.861762     -1.684047     -2.117799
  H       2.544539      1.989302     -0.423229
  H       1.185188      1.263786      0.446343
  H       2.488489     -2.251875      0.234445
  H       1.152060     -1.262500      0.839435
  Br     -1.172691     -0.132847     -0.439246
  C       3.054244     -1.601373     -4.992383
  O       2.598296     -0.879885     -3.994177
  H       4.148254     -1.888325     -4.897875
  H       2.514815     -2.590965     -5.135780
  H       2.981560     -1.092596     -6.003670
