  18
        -22.57687179
 C          2.3616015719       -1.2531202570       -0.2016724135
 C          3.0388547075        0.0001529826        0.3460151777
 C          0.8728786200        1.2551695004        0.1479767227
 H          0.2538086374       -0.0000542574       -1.5000119009
 C          2.3613962612        1.2531884664       -0.2018612456
 H          0.3895888514        2.1443279762       -0.2637700459
 H          0.7504913294        1.2770962122        1.2339036017
 C          0.8729755214       -1.2553434107        0.1478244850
 H          2.9757884569        0.0002745812        1.4366603974
 H          4.0953648723        0.0001856178        0.0716409789
 C          0.2262692464       -0.0000881851       -0.4077848977
 H          0.7502770991       -1.2776109228        1.2337167142
 H          0.3899310341       -2.1444581596       -0.2642981709
 H          2.4788935608        1.2867965943       -1.2877385953
 H          2.8299261315        2.1469359201        0.2138306506
 H          2.4793463287       -1.2868833895       -1.2875268121
 H          2.8301474454       -2.1466925984        0.2143957387
 Br        -1.7182883808        0.0000071882        0.0279918613
  18
        -22.57582870
 C          1.7572446649       -1.2517020700        0.1210707656
 C          2.6287652051        0.0001499929        0.0691212477
 C          0.7601798891        1.2612565256       -1.0344483989
 H         -0.7576488006        0.0002130367       -1.9202984943
 C          1.7574600717        1.2521297624        0.1208786827
 H          1.3018446421        1.3084560120       -1.9837865546
 H          0.1185383272        2.1434905373       -0.9714058111
 C          0.7601591855       -1.2608221520       -1.0343385051
 H          3.3255483682        0.0001420871        0.9093776184
 H          3.2146318699        0.0000261532       -0.8535412127
 C         -0.0873610994        0.0002316935       -1.0572530640
 H          0.1184740140       -2.1430836673       -0.9714809747
 H          1.3018327027       -1.3079041158       -1.9836226676
 H          2.3797961289        2.1476060040        0.0695280306
 H          1.2151238091        1.2780653701        1.0693721162
 H          2.3794581126       -2.1472876745        0.0700669479
 H          1.2147529470       -1.2773817926        1.0694333237
 Br        -1.3383308174       -0.0002164993        0.4924706501
  18
        -22.56789534
 C          2.3208154857       -1.2789011608       -0.4307740497
 C          2.9423047278       -0.0370809005        0.2231803956
 C          0.9351287652        1.0540539982       -0.8177237036
 H         -0.2670672271       -0.4902691239       -1.7424196886
 C          1.9218583104        1.1030674871        0.3431912962
 H          1.4875141454        1.0512109428       -1.7607446686
 H          0.2968733582        1.9393015798       -0.8172949156
 C          0.8354994806       -1.3705542300       -0.0884265658
 H          3.3144338011       -0.2887279542        1.2177846655
 H          3.7961233660        0.2916068075       -0.3718754081
 C          0.0902118562       -0.2147599366       -0.7482964689
 H          0.7242221654       -1.3235522614        0.9966068501
 H          0.4164396895       -2.3220786569       -0.4220836054
 H          2.4359344392        2.0651102143        0.3540386221
 H          1.3678331657        1.0204983806        1.2809251831
 H          2.4350554255       -1.2359665350       -1.5158426761
 H          2.8312392756       -2.1781956185       -0.0836919628
 Br        -1.5973762774        0.1304185829        0.2644438879
  18
        -22.56778670
 C          2.3627191564       -1.3064021624        0.0469505774
 C          2.9803477878        0.0454728190       -0.3357407375
 C          0.8515378209        1.3228349649        0.0950883496
 H          0.3826633542       -0.1902086593       -1.3983352872
 C          2.3353451090        1.1710442494        0.4661754318
 H          0.7331498720        2.0390662327       -0.7209821548
 H          0.3065796944        1.7146936278        0.9563918164
 C          0.8870655981       -1.1639368985        0.4532296471
 H          4.0554800409        0.0236301739       -0.1513541814
 H          2.8359623205        0.2393593400       -1.4007687875
 C          0.2655469358       -0.0212933681       -0.3263624663
 H          0.8013001714       -0.9524523162        1.5212187190
 H          0.3553039103       -2.0972568830        0.2580703098
 H          2.8517063141        2.1136986194        0.2802869690
 H          2.4330175056        0.9467227488        1.5297333459
 H          2.4478648671       -1.9937337865       -0.7966562416
 H          2.9115463674       -1.7432863352        0.8826398196
 Br        -1.7091852303       -0.0084374345       -0.0721404765
