23
 energy: -30.655933754560 gnorm: 0.000675961157 xtb: 6.3.2 (30e43eb)
C         2.73469945939126   -1.24425997710912   -0.39699226502890
C         3.11999369765303    0.03221976183431    0.34296903857858
C         1.32495577106538    1.28025352280736   -0.87959075337941
H        -0.19000064978115    0.02454078705050   -1.76361085096047
C         2.80824457896983    1.24735477837839   -0.52392911483657
H         1.10072095136791    2.15033909486177   -1.50090027500377
H         0.71818015497376    1.36046355206495    0.02542994826538
C         1.25272695612803   -1.22768442306473   -0.75943495264236
H         2.55180212823943    0.09763540218655    1.27451142000610
H         4.18282196700710    0.01359576512641    0.59196377644239
C         0.90434710321524   -0.00262493118400   -1.60834711640344
H         0.63871748118571   -1.19898755510640    0.14346928282845
H         0.99234569873608   -2.12711670033444   -1.32061602559849
H         3.39121733914140    1.19137694220744   -1.44567330277869
H         3.07693408333913    2.16657329911963    0.00080966466290
H         3.31486728733054   -1.32074537437738   -1.31791179015656
H         2.94625043992985   -2.11850399036669    0.22165669953535
Br       -3.24949092921714    0.45018057308755    1.33171491227119
O         1.53991800371648   -0.16158951576001   -2.86959542620709
C         1.04326124204604    0.66108255961689   -3.89643932524208
H         1.31124278717380    1.71216863882351   -3.74692679274349
H         1.49702168375623    0.30012349074378   -4.81755661864063
H        -0.04927458194817    0.58528005401135   -3.96758404932677
