23
Coordinates from ORCA-job optts+numfreq_reactant E -30.580978359510
  C       2.853513     -1.183718     -0.070683
  C       2.968867     -0.020929      0.910224
  C       1.285343      1.264711     -0.430257
  H       1.933786      0.241749     -2.228249
  C       2.680316      1.293037      0.190465
  H       1.092971      2.203192     -0.956971
  H       0.526134      1.142474      0.348751
  C       1.460171     -1.218141     -0.695034
  H       2.252892     -0.157761      1.724434
  H       3.973415      0.003762      1.335841
  C       1.218741      0.101938     -1.401497
  H       0.701649     -1.369972      0.079543
  H       1.393006     -2.043720     -1.409604
  H       3.408441      1.433617     -0.613623
  H       2.758258      2.134662      0.881345
  H       3.585261     -1.053612     -0.873587
  H       3.054945     -2.132814      0.430441
  Br     -0.552772      0.064970     -2.240265
  O       3.405465      0.460551     -3.461788
  C       3.384095     -0.209741     -4.594670
  H       2.447539     -0.047327     -5.212682
  H       4.234521      0.046666     -5.293979
  H       3.447614     -1.335752     -4.468201
23
Coordinates from ORCA-job optts+numfreq_reactant E -30.580978547110
  C       2.853548     -1.183924     -0.068599
  C       2.968421     -0.020210      0.911246
  C       1.285632      1.264198     -0.431370
  H       1.935303      0.239149     -2.227734
  C       2.680253      1.293084      0.190127
  H       1.093668      2.202106     -0.959257
  H       0.525915      1.142921      0.347284
  C       1.460403     -1.219007     -0.693412
  H       2.252032     -0.156282      1.725228
  H       3.972748      0.004909      1.337367
  C       1.219537      0.100394     -1.401405
  H       0.701553     -1.369951      0.081002
  H       1.393447     -2.045304     -1.407172
  H       3.408823      1.432921     -0.613691
  H       2.757798      2.135359      0.880255
  H       3.585478     -1.054452     -0.871436
  H       3.054947     -2.132516      0.433493
  Br     -0.551393      0.062777     -2.241358
  O       3.408244      0.456272     -3.460337
  C       3.383497     -0.208365     -4.596508
  H       2.448172     -0.037481     -5.214096
  H       4.235685      0.046551     -5.294198
  H       3.440457     -1.335309     -4.475478
