23
Coordinates from ORCA-job optts+numfreq_TSOpt_IRC_F E -30.554503174410
  C       0.646425     -1.178013      1.049986
  C       0.654466      0.016204      1.996069
  C      -0.854889      1.275572      0.441297
  H      -1.105058      0.108889     -1.484855
  C       0.476940      1.300525      1.195486
  H      -0.970471      2.176363     -0.164683
  H      -1.657902      1.253153      1.184268
  C      -0.679859     -1.242499      0.287596
  H      -0.155992     -0.082206      2.723698
  H       1.602085      0.048599      2.537735
  C      -0.939510      0.052789     -0.423214
  H      -1.473293     -1.421583      1.019279
  H      -0.676496     -2.072462     -0.422846
  H       1.275334      1.376567      0.458268
  H       0.501738      2.174972      1.849196
  H       1.447230     -1.057317      0.320173
  H       0.790705     -2.112358      1.596952
  Br     -3.407589     -0.117957     -0.504747
  O       0.978744      0.264493     -1.440720
  C       0.912460     -0.102267     -2.741337
  H       0.210234      0.524920     -3.338717
  H       1.904627     -0.005576     -3.219922
  H       0.590944     -1.158539     -2.880746
23
Coordinates from ORCA-job optts+numfreq_TSOpt_IRC_F E -30.558746656230
  C       0.648614     -1.178836      1.051541
  C       0.655145      0.016187      1.996998
  C      -0.847974      1.273548      0.435304
  H      -1.112800      0.108310     -1.484574
  C       0.479058      1.301344      1.196997
  H      -0.969837      2.176930     -0.164888
  H      -1.655804      1.250701      1.179255
  C      -0.673363     -1.239136      0.282177
  H      -0.156101     -0.082177      2.723565
  H       1.602247      0.048582      2.538429
  C      -0.885213      0.057135     -0.438759
  H      -1.471618     -1.418340      1.014685
  H      -0.675782     -2.073008     -0.423021
  H       1.276414      1.377402      0.459623
  H       0.501557      2.175307      1.849985
  H       1.448340     -1.058146      0.321555
  H       0.790611     -2.112856      1.597746
  Br     -3.445226     -0.120793     -0.505854
  O       0.952106      0.260601     -1.422879
  C       0.906601     -0.102695     -2.737307
  H       0.210426      0.524898     -3.337605
  H       1.902438     -0.004642     -3.214676
  H       0.591031     -1.158045     -2.880082
23
Coordinates from ORCA-job optts+numfreq_TSOpt_IRC_F E -30.565640403280
  C       0.651337     -1.180407      1.053221
  C       0.655941      0.016163      1.997705
  C      -0.838807      1.272235      0.428669
  H      -1.132878      0.107103     -1.489131
  C       0.481653      1.302946      1.198776
  H      -0.968585      2.178129     -0.165332
  H      -1.653659      1.243194      1.169662
  C      -0.664720     -1.236288      0.276077
  H      -0.156058     -0.082126      2.723365
  H       1.602515      0.048545      2.539487
  C      -0.822180      0.061780     -0.452492
  H      -1.470715     -1.409674      1.006263
  H      -0.674402     -2.074253     -0.423459
  H       1.278782      1.378826      0.461841
  H       0.502173      2.176448      1.851950
  H       1.450837     -1.059556      0.323856
  H       0.791404     -2.114189      1.599664
  Br     -3.481183     -0.123398     -0.508046
  O       0.923472      0.255668     -1.405493
  C       0.898038     -0.104273     -2.734387
  H       0.210180      0.524627     -3.334869
  H       1.897246     -0.002016     -3.200368
  H       0.590479     -1.157215     -2.878742
23
Coordinates from ORCA-job optts+numfreq_TSOpt_IRC_F E -30.574193024010
  C       0.653649     -1.182188      1.054944
  C       0.656675      0.016154      1.998152
  C      -0.830759      1.272245      0.424968
  H      -1.150193      0.105555     -1.485803
  C       0.483842      1.304696      1.200628
  H      -0.967263      2.179014     -0.165871
  H      -1.651237      1.235570      1.159788
  C      -0.657005     -1.235268      0.272729
  H      -0.156011     -0.082079      2.723156
  H       1.602810      0.048502      2.540511
  C      -0.770073      0.066283     -0.476705
  H      -1.469583     -1.400855      0.997597
  H      -0.673031     -2.075208     -0.423944
  H       1.281416      1.380276      0.463919
  H       0.502845      2.177272      1.853658
  H       1.453618     -1.060952      0.325994
  H       0.792199     -2.115159      1.601350
  Br     -3.510260     -0.125474     -0.509808
  O       0.897462      0.251317     -1.389316
  C       0.890119     -0.105552     -2.730722
  H       0.209325      0.524441     -3.332498
  H       1.892841      0.000537     -3.186874
  H       0.589487     -1.156858     -2.877637
23
Coordinates from ORCA-job optts+numfreq_TSOpt_IRC_F E -30.584615541410
  C       0.656146     -1.183541      1.056203
  C       0.657654      0.016148      1.998739
  C      -0.820951      1.270480      0.417545
  H      -1.169926      0.103942     -1.484919
  C       0.486294      1.306101      1.201985
  H      -0.965494      2.180240     -0.166152
  H      -1.648963      1.226094      1.148310
  C      -0.647947     -1.231977      0.266017
  H      -0.155946     -0.082021      2.722864
  H       1.603086      0.048439      2.541681
  C      -0.714851      0.070538     -0.496848
  H      -1.468941     -1.390128      0.987632
  H      -0.671215     -2.076601     -0.424160
  H       1.284580      1.382064      0.466564
  H       0.503691      2.178396      1.855889
  H       1.456966     -1.062701      0.328682
  H       0.793217     -2.116473      1.603518
  Br     -3.538330     -0.127452     -0.511511
  O       0.866812      0.246535     -1.370480
  C       0.881554     -0.106669     -2.725690
  H       0.207693      0.524305     -3.329879
  H       1.887916      0.003471     -3.171331
  H       0.587824     -1.156919     -2.876444
23
Coordinates from ORCA-job optts+numfreq_TSOpt_IRC_F E -30.595322515820
  C       0.658618     -1.185549      1.057832
  C       0.658347      0.016146      1.998982
  C      -0.812488      1.270106      0.414232
  H      -1.184315      0.102171     -1.476203
  C       0.488665      1.308099      1.203768
  H      -0.963624      2.181315     -0.166948
  H      -1.645742      1.216990      1.136331
  C      -0.640038     -1.230786      0.263236
  H      -0.155880     -0.081965      2.722558
  H       1.603453      0.048377      2.542858
  C      -0.670998      0.074701     -0.528731
  H      -1.467326     -1.379611      0.977151
  H      -0.669334     -2.077797     -0.424844
  H       1.287983      1.383788      0.468996
  H       0.504375      2.179000      1.857619
  H       1.460541     -1.064328      0.331138
  H       0.794008     -2.117229      1.605238
  Br     -3.562952     -0.129178     -0.512969
  O       0.839270      0.242305     -1.352765
  C       0.872808     -0.107804     -2.720254
  H       0.205987      0.524106     -3.327312
  H       1.883400      0.006320     -3.156413
  H       0.586113     -1.156905     -2.875284
23
Coordinates from ORCA-job optts+numfreq_TSOpt_IRC_F E -30.605850032470
  C       0.661207     -1.187287      1.059189
  C       0.659189      0.016144      1.999300
  C      -0.803013      1.268758      0.408707
  H      -1.199870      0.100390     -1.469205
  C       0.491203      1.309867      1.205253
  H      -0.961388      2.182571     -0.167670
  H      -1.642408      1.206801      1.123310
  C      -0.631361     -1.228343      0.258461
  H      -0.155798     -0.081899      2.722177
  H       1.603823      0.048301      2.544155
  C      -0.626295      0.078593     -0.557343
  H      -1.465809     -1.367957      0.965826
  H      -0.667090     -2.079232     -0.425429
  H       1.291800      1.385721      0.471763
  H       0.505105      2.179735      1.859621
  H       1.464534     -1.066155      0.333911
  H       0.794879     -2.118152      1.607218
  Br     -3.587375     -0.130874     -0.514459
  O       0.809636      0.237854     -1.334118
  C       0.863646     -0.108866     -2.714015
  H       0.203853      0.523901     -3.324436
  H       1.878393      0.009419     -3.140039
  H       0.584010     -1.157023     -2.873961
23
Coordinates from ORCA-job optts+numfreq_TSOpt_IRC_F E -30.614956079150
  C       0.664174     -1.188495      1.060230
  C       0.660391      0.016150      1.999723
  C      -0.791705      1.266443      0.399695
  H      -1.217053      0.098487     -1.463273
  C       0.494259      1.311177      1.206359
  H      -0.958351      2.183997     -0.168318
  H      -1.638538      1.194441      1.108025
  C      -0.621173     -1.224533      0.250536
  H      -0.155702     -0.081812      2.721654
  H       1.604191      0.048198      2.545704
  C      -0.585372      0.081684     -0.580691
  H      -1.464197     -1.353984      0.952654
  H      -0.664085     -2.080947     -0.425859
  H       1.296538      1.388100      0.475197
  H       0.505891      2.180740      1.862152
  H       1.469457     -1.068387      0.337293
  H       0.795883     -2.119416      1.609704
  Br     -3.612349     -0.132586     -0.516089
  O       0.780435      0.233343     -1.316827
  C       0.854071     -0.109605     -2.705881
  H       0.200780      0.523739     -3.320873
  H       1.872250      0.013005     -3.120662
  H       0.581076     -1.157469     -2.872237
23
Coordinates from ORCA-job optts+numfreq_TSOpt_IRC_F E -30.622161747720
  C       0.668114     -1.190028      1.061467
  C       0.661818      0.016154      2.000094
  C      -0.779087      1.263785      0.390010
  H      -1.233680      0.096191     -1.452973
  C       0.498356      1.312840      1.207642
  H      -0.953791      2.185840     -0.169735
  H      -1.632446      1.178574      1.087713
  C      -0.610015     -1.220604      0.242267
  H      -0.155521     -0.081683      2.720830
  H       1.604754      0.048051      2.547820
  C      -0.558049      0.083606     -0.605199
  H      -1.461110     -1.335971      0.935203
  H      -0.659649     -2.083179     -0.426870
  H       1.303326      1.391255      0.479685
  H       0.506609      2.181500      1.864949
  H       1.476407     -1.071260      0.341634
  H       0.796865     -2.120515      1.612520
  Br     -3.640491     -0.134483     -0.518011
  O       0.757839      0.229668     -1.303442
  C       0.842687     -0.110485     -2.695662
  H       0.196333      0.523495     -3.315862
  H       1.864700      0.017536     -3.096194
  H       0.576901     -1.158017     -2.869674
23
Coordinates from ORCA-job optts+numfreq_TSOpt_IRC_F E -30.628116798100
  C       0.672959     -1.190344      1.062006
  C       0.664155      0.016176      2.000627
  C      -0.765986      1.261091      0.377178
  H      -1.253508      0.093619     -1.444704
  C       0.503650      1.313366      1.207987
  H      -0.946927      2.187667     -0.171844
  H      -1.625015      1.158872      1.063034
  C      -0.598425     -1.216699      0.231028
  H      -0.155257     -0.081491      2.719546
  H       1.605365      0.047820      2.550649
  C      -0.546074      0.083693     -0.614110
  H      -1.457645     -1.313920      0.914313
  H      -0.653123     -2.085646     -0.428200
  H       1.312752      1.395426      0.485735
  H       0.506983      2.182148      1.868105
  H       1.485868     -1.075002      0.347370
  H       0.797634     -2.121685      1.615818
  Br     -3.672737     -0.136624     -0.520266
  O       0.747914      0.227698     -1.299945
  C       0.831858     -0.111111     -2.684745
  H       0.189834      0.523302     -3.308961
  H       1.855703      0.022961     -3.066641
  H       0.570893     -1.159047     -2.865764
23
Coordinates from ORCA-job optts+numfreq_TSOpt_IRC_F E -30.633055693070
  C       0.678085     -1.191608      1.062698
  C       0.666345      0.016175      2.000661
  C      -0.754796      1.259116      0.369442
  H      -1.268501      0.090924     -1.432091
  C       0.509022      1.314667      1.208432
  H      -0.937918      2.189555     -0.176050
  H      -1.617278      1.138227      1.036997
  C      -0.588594     -1.214273      0.224621
  H      -0.154682     -0.081211      2.717567
  H       1.606400      0.047505      2.554284
  C      -0.547747      0.083408     -0.626182
  H      -1.454132     -1.291068      0.892286
  H      -0.644648     -2.088224     -0.431267
  H       1.324712      1.400176      0.492685
  H       0.506578      2.181105      1.870003
  H       1.497620     -1.079155      0.353891
  H       0.797552     -2.121311      1.618261
  Br     -3.707504     -0.138926     -0.522576
  O       0.744895      0.228279     -1.298986
  C       0.821179     -0.112768     -2.677277
  H       0.181768      0.523111     -3.301087
  H       1.848888      0.028741     -3.037301
  H       0.563628     -1.160175     -2.860793
23
Coordinates from ORCA-job optts+numfreq_TSOpt_IRC_F E -30.636948670150
  C       0.682974     -1.190660      1.062427
  C       0.669736      0.016197      2.000809
  C      -0.744697      1.257704      0.359126
  H      -1.285801      0.088473     -1.426271
  C       0.514550      1.313764      1.207641
  H      -0.927328      2.189982     -0.180384
  H      -1.613371      1.119527      1.015587
  C      -0.579377     -1.211877      0.215242
  H      -0.154078     -0.080880      2.714998
  H       1.607041      0.047091      2.558058
  C      -0.540248      0.083491     -0.626038
  H      -1.453833     -1.271183      0.874244
  H      -0.634938     -2.089218     -0.433883
  H       1.336919      1.405091      0.500601
  H       0.505341      2.180124      1.871854
  H       1.509523     -1.083647      0.361173
  H       0.796779     -2.121276      1.620853
  Br     -3.743046     -0.141299     -0.524846
  O       0.737839      0.229494     -1.299426
  C       0.814047     -0.113378     -2.671453
  H       0.172850      0.522974     -3.293916
  H       1.844230      0.033682     -3.012823
  H       0.555758     -1.161908     -2.855360
23
Coordinates from ORCA-job optts+numfreq_TSOpt_IRC_F E -30.640226069870
  C       0.688253     -1.191011      1.062926
  C       0.673024      0.016157      2.000781
  C      -0.735103      1.255769      0.352485
  H      -1.298273      0.085821     -1.414521
  C       0.520237      1.313950      1.207711
  H      -0.914676      2.190141     -0.186240
  H      -1.608750      1.101469      0.992844
  C      -0.570658     -1.209621      0.209545
  H      -0.153310     -0.080484      2.711641
  H       1.608102      0.046569      2.562618
  C      -0.540922      0.083487     -0.634974
  H      -1.452597     -1.251669      0.854624
  H      -0.623349     -2.089759     -0.437596
  H       1.350684      1.410569      0.509681
  H       0.503325      2.178203      1.873359
  H       1.522928     -1.088779      0.369451
  H       0.795204     -2.120469      1.623314
  Br     -3.783604     -0.144045     -0.527361
  O       0.733778      0.232711     -1.300031
  C       0.806099     -0.114387     -2.666728
  H       0.163288      0.522249     -3.286734
  H       1.839821      0.038381     -2.989507
  H       0.547369     -1.162983     -2.849074
23
Coordinates from ORCA-job optts+numfreq_TSOpt_IRC_F E -30.642752278520
  C       0.693197     -1.190554      1.063394
  C       0.676855      0.016081      2.001131
  C      -0.725696      1.254175      0.345037
  H      -1.312712      0.083328     -1.407663
  C       0.525555      1.313200      1.207697
  H      -0.900667      2.189310     -0.192309
  H      -1.605673      1.086750      0.972938
  C      -0.561651     -1.207198      0.202606
  H      -0.152740     -0.080121      2.707941
  H       1.609134      0.045931      2.567579
  C      -0.535655      0.083585     -0.635711
  H      -1.452087     -1.235626      0.837027
  H      -0.610533     -2.089283     -0.441271
  H       1.364131      1.416292      0.519669
  H       0.500367      2.176326      1.875250
  H       1.536143     -1.094475      0.378443
  H       0.792780     -2.119989      1.626225
  Br     -3.827244     -0.147083     -0.530112
  O       0.728972      0.237197     -1.301737
  C       0.799674     -0.114738     -2.663244
  H       0.153791      0.521074     -3.280994
  H       1.835807      0.041953     -2.971428
  H       0.539123     -1.163863     -2.842252
23
Coordinates from ORCA-job optts+numfreq_TSOpt_IRC_F E -30.644759119480
  C       0.698702     -1.190572      1.064841
  C       0.680732      0.015903      2.002017
  C      -0.716968      1.252699      0.339309
  H      -1.322398      0.080870     -1.397261
  C       0.531222      1.312766      1.208856
  H      -0.884733      2.188128     -0.199369
  H      -1.602420      1.075954      0.954169
  C      -0.552729     -1.205316      0.197040
  H      -0.152467     -0.079877      2.704129
  H       1.610158      0.045151      2.573238
  C      -0.534470      0.084253     -0.641322
  H      -1.450356     -1.222955      0.819550
  H      -0.595709     -2.088150     -0.445788
  H       1.377577      1.422529      0.530927
  H       0.496335      2.174295      1.877960
  H       1.549737     -1.101053      0.388532
  H       0.789326     -2.119632      1.629881
  Br     -3.876674     -0.150650     -0.533343
  O       0.725851      0.243544     -1.304261
  C       0.793949     -0.114670     -2.660990
  H       0.144177      0.519199     -3.276955
  H       1.831153      0.044357     -2.958407
  H       0.530877     -1.164504     -2.834537
23
Coordinates from ORCA-job optts+numfreq_TSOpt_IRC_F E -30.646329544740
  C       0.703550     -1.191162      1.066920
  C       0.683978      0.015566      2.003531
  C      -0.707771      1.252658      0.335347
  H      -1.331878      0.078854     -1.390382
  C       0.535642      1.312816      1.210978
  H      -0.867453      2.187228     -0.206963
  H      -1.599696      1.071196      0.938679
  C      -0.542567     -1.203960      0.192099
  H      -0.152650     -0.079943      2.700945
  H       1.611035      0.044246      2.579731
  C      -0.529703      0.084724     -0.642476
  H      -1.447505     -1.215792      0.803833
  H      -0.579039     -2.086647     -0.451329
  H       1.389832      1.429029      0.543080
  H       0.491285      2.171930      1.881733
  H       1.562869     -1.108338      0.399436
  H       0.784802     -2.119276      1.634350
  Br     -3.930858     -0.154698     -0.537274
  O       0.723935      0.251796     -1.307857
  C       0.788052     -0.114751     -2.660866
  H       0.135078      0.516461     -3.275807
  H       1.826661      0.045262     -2.953224
  H       0.523274     -1.164929     -2.826268
23
Coordinates from ORCA-job optts+numfreq_TSOpt_IRC_F E -30.647594322010
  C       0.708710     -1.191459      1.070360
  C       0.686602      0.015059      2.006492
  C      -0.700349      1.252592      0.330695
  H      -1.335687      0.077507     -1.382125
  C       0.539876      1.312453      1.214952
  H      -0.849406      2.187216     -0.214139
  H      -1.597194      1.073493      0.927455
  C      -0.533043     -1.202276      0.186084
  H      -0.153454     -0.080547      2.699043
  H       1.610643      0.043283      2.586425
  C      -0.525810      0.086771     -0.644833
  H      -1.442928     -1.215196      0.790573
  H      -0.560785     -2.085132     -0.457953
  H       1.400102      1.435585      0.555441
  H       0.485976      2.170447      1.888075
  H       1.575112     -1.115880      0.410735
  H       0.779961     -2.119834      1.640459
  Br     -3.987270     -0.158979     -0.541852
  O       0.722223      0.260480     -1.313180
  C       0.783378     -0.114417     -2.662347
  H       0.126676      0.512454     -3.277827
  H       1.821078      0.044308     -2.956192
  H       0.516461     -1.165660     -2.818125
23
Coordinates from ORCA-job optts+numfreq_TSOpt_IRC_F E -30.648623958090
  C       0.713514     -1.192599      1.073813
  C       0.687503      0.014653      2.008904
  C      -0.692390      1.256373      0.330313
  H      -1.340213      0.077358     -1.378553
  C       0.543375      1.313367      1.219885
  H      -0.831700      2.188470     -0.220453
  H      -1.594756      1.080460      0.918694
  C      -0.522152     -1.204079      0.182969
  H      -0.155237     -0.081878      2.699042
  H       1.609600      0.042398      2.593805
  C      -0.520537      0.088293     -0.643824
  H      -1.436921     -1.219289      0.778450
  H      -0.541776     -2.082351     -0.465620
  H       1.407265      1.441442      0.568255
  H       0.480811      2.167673      1.894808
  H       1.585570     -1.122707      0.422759
  H       0.774873     -2.119141      1.646127
  Br     -4.041906     -0.163073     -0.546878
  O       0.723785      0.269956     -1.319327
  C       0.778950     -0.114873     -2.666203
  H       0.118160      0.507535     -3.282878
  H       1.814790      0.042046     -2.964559
  H       0.510261     -1.167766     -2.811314
23
Coordinates from ORCA-job optts+numfreq_TSOpt_IRC_F E -30.648863981090
  C       0.714631     -1.192434      1.074786
  C       0.687508      0.014373      2.010384
  C      -0.691211      1.256342      0.328827
  H      -1.339690      0.077593     -1.376464
  C       0.543903      1.313238      1.221145
  H      -0.827141      2.188949     -0.221493
  H      -1.594093      1.082965      0.917056
  C      -0.520241     -1.202972      0.180566
  H      -0.155789     -0.082323      2.699066
  H       1.609144      0.042186      2.595842
  C      -0.518714      0.089306     -0.644264
  H      -1.435296     -1.221205      0.775829
  H      -0.536605     -2.081709     -0.467682
  H       1.409237      1.442820      0.571271
  H       0.479796      2.167636      1.897460
  H       1.588465     -1.124085      0.425628
  H       0.773969     -2.119633      1.648169
  Br     -4.055186     -0.164083     -0.548204
  O       0.722567      0.271576     -1.321325
  C       0.777848     -0.115065     -2.667034
  H       0.116067      0.505712     -3.284148
  H       1.812868      0.041189     -2.967435
  H       0.508833     -1.168109     -2.809763
23
Coordinates from ORCA-job optts+numfreq_TSOpt_IRC_F E -30.649029814380
  C       0.715170     -1.192558      1.075587
  C       0.687550      0.014185      2.011251
  C      -0.689689      1.256808      0.328852
  H      -1.339382      0.077821     -1.375125
  C       0.544016      1.313376      1.222227
  H      -0.824115      2.189475     -0.222385
  H      -1.593709      1.084590      0.915852
  C      -0.518197     -1.202760      0.179912
  H      -0.156166     -0.082637      2.699090
  H       1.608655      0.042034      2.597194
  C      -0.518609      0.089714     -0.645229
  H      -1.434249     -1.222454      0.773912
  H      -0.533102     -2.081259     -0.469316
  H       1.410534      1.443722      0.573345
  H       0.479089      2.167288      1.898962
  H       1.590388     -1.124969      0.427609
  H       0.773281     -2.119591      1.649227
  Br     -4.064161     -0.164767     -0.549120
  O       0.722761      0.273071     -1.322361
  C       0.776701     -0.115501     -2.667867
  H       0.114493      0.504526     -3.285185
  H       1.811756      0.040647     -2.969421
  H       0.507853     -1.168493     -2.808797
