23
Coordinates from ORCA-job optts+numfreq_product E -30.655933754130
  C       2.734699     -1.244260     -0.396992
  C       3.119994      0.032220      0.342969
  C       1.324956      1.280254     -0.879591
  H      -0.190001      0.024541     -1.763611
  C       2.808245      1.247355     -0.523929
  H       1.100721      2.150339     -1.500900
  H       0.718180      1.360464      0.025430
  C       1.252727     -1.227684     -0.759435
  H       2.551802      0.097635      1.274511
  H       4.182822      0.013596      0.591964
  C       0.904347     -0.002625     -1.608347
  H       0.638717     -1.198988      0.143469
  H       0.992346     -2.127117     -1.320616
  H       3.391217      1.191377     -1.445673
  H       3.076934      2.166573      0.000810
  H       3.314867     -1.320745     -1.317912
  H       2.946250     -2.118504      0.221657
  Br     -3.249491      0.450181      1.331715
  O       1.539918     -0.161590     -2.869595
  C       1.043261      0.661083     -3.896439
  H       1.311243      1.712169     -3.746927
  H       1.497022      0.300123     -4.817557
  H      -0.049275      0.585280     -3.967584
23
Coordinates from ORCA-job optts+numfreq_product E -30.655936551120
  C       2.733934     -1.244463     -0.396359
  C       3.119745      0.032246      0.342999
  C       1.324694      1.280022     -0.878778
  H      -0.190827      0.024675     -1.762930
  C       2.808153      1.247267     -0.524016
  H       1.100158      2.150281     -1.499480
  H       0.718392      1.359636      0.026427
  C       1.251900     -1.227438     -0.758553
  H       2.552044      0.098027      1.274891
  H       4.182661      0.013443      0.591466
  C       0.903547     -0.002530     -1.607639
  H       0.637933     -1.198188      0.144355
  H       0.991153     -2.126932     -1.319394
  H       3.390299      1.190596     -1.446218
  H       3.077612      2.166631      0.000073
  H       3.313789     -1.321385     -1.317436
  H       2.945413     -2.118633      0.222426
  Br     -3.232738      0.450158      1.318004
  O       1.539070     -0.161014     -2.868715
  C       1.041371      0.661368     -3.895253
  H       1.305032      1.713736     -3.743374
  H       1.498688      0.303400     -4.815933
  H      -0.050522      0.580774     -3.969147
23
Coordinates from ORCA-job optts+numfreq_product E -30.655942170800
  C       2.734681     -1.244869     -0.396439
  C       3.121391      0.032086      0.342032
  C       1.326450      1.279888     -0.877801
  H      -0.190575      0.024891     -1.762657
  C       2.810392      1.246712     -0.525490
  H       1.101735      2.150569     -1.497399
  H       0.721626      1.358808      0.028046
  C       1.252437     -1.227419     -0.757815
  H       2.554606      0.098590      1.274570
  H       4.184500      0.012831      0.589480
  C       0.903733     -0.002272     -1.606826
  H       0.638781     -1.198016      0.145259
  H       0.991572     -2.126899     -1.318523
  H       3.390326      1.187740     -1.448907
  H       3.082253      2.166474     -0.003401
  H       3.313683     -1.321946     -1.318040
  H       2.946523     -2.119149      0.222054
  Br     -3.248363      0.454587      1.313967
  O       1.539666     -0.159472     -2.867375
  C       1.039358      0.661615     -3.893619
  H       1.291139      1.716975     -3.735900
  H       1.506354      0.311559     -4.812776
  H      -0.050765      0.568392     -3.975023
23
Coordinates from ORCA-job optts+numfreq_product E -30.655947359760
  C       2.735219     -1.245120     -0.396719
  C       3.123526      0.031377      0.341618
  C       1.327927      1.280497     -0.875284
  H      -0.190076      0.026455     -1.761330
  C       2.812513      1.246242     -0.525570
  H       1.102657      2.152266     -1.493272
  H       0.724438      1.358114      0.031677
  C       1.252706     -1.226587     -0.757075
  H       2.557892      0.098055      1.274784
  H       4.186974      0.011260      0.587925
  C       0.904098     -0.000851     -1.605450
  H       0.639459     -1.197128      0.146277
  H       0.991191     -2.125784     -1.318004
  H       3.390330      1.185966     -1.450264
  H       3.086568      2.165916     -0.004662
  H       3.313335     -1.322218     -1.318905
  H       2.947030     -2.119802      0.221137
  Br     -3.256073      0.458761      1.303366
  O       1.540285     -0.157103     -2.866131
  C       1.036227      0.660627     -3.893258
  H       1.274226      1.718228     -3.731360
  H       1.513165      0.318580     -4.810281
  H      -0.052113      0.553925     -3.981803
23
Coordinates from ORCA-job optts+numfreq_product E -30.655956259380
  C       2.737006     -1.245912     -0.397676
  C       3.129810      0.028979      0.340951
  C       1.332262      1.282529     -0.868274
  H      -0.187759      0.031825     -1.757073
  C       2.818339      1.244928     -0.524716
  H       1.105412      2.157092     -1.482145
  H       0.731983      1.356925      0.041369
  C       1.253855     -1.223997     -0.755366
  H       2.566954      0.095806      1.275622
  H       4.193982      0.006446      0.584467
  C       0.906064      0.003628     -1.601500
  H       0.641809     -1.194511      0.148830
  H       0.990077     -2.122126     -1.317125
  H       3.391407      1.182573     -1.452275
  H       3.097279      2.164007     -0.005639
  H       3.312979     -1.323205     -1.321239
  H       2.948182     -2.121798      0.218603
  Br     -3.274205      0.470203      1.269129
  O       1.542530     -0.150072     -2.862987
  C       1.026318      0.657044     -3.892545
  H       1.226839      1.719921     -3.721546
  H       1.527180      0.336358     -4.804286
  H      -0.056800      0.515033     -3.997165
23
Coordinates from ORCA-job optts+numfreq_product E -30.655959498500
  C       2.738274     -1.246403     -0.398298
  C       3.132949      0.027692      0.340785
  C       1.334615      1.283539     -0.865441
  H      -0.186190      0.034487     -1.754745
  C       2.821089      1.244386     -0.523769
  H       1.107227      2.158932     -1.478028
  H       0.735428      1.357277      0.045004
  C       1.254865     -1.222988     -0.754786
  H       2.571075      0.094367      1.276037
  H       4.197304      0.004206      0.583215
  C       0.907576      0.005624     -1.599636
  H       0.643517     -1.193660      0.149903
  H       0.989801     -2.120484     -1.316973
  H       3.392902      1.182223     -1.452093
  H       3.101308      2.162965     -0.004427
  H       3.313464     -1.323834     -1.322323
  H       2.949017     -2.122789      0.217462
  Br     -3.283572      0.475417      1.250935
  O       1.543784     -0.146733     -2.861725
  C       1.021044      0.655124     -3.892044
  H       1.206621      1.720138     -3.718693
  H       1.529381      0.342551     -4.802346
  H      -0.059975      0.499640     -4.000596
23
Coordinates from ORCA-job optts+numfreq_product E -30.655964572540
  C       2.740731     -1.247169     -0.399415
  C       3.137344      0.025884      0.340612
  C       1.338054      1.284749     -0.862399
  H      -0.183828      0.037586     -1.750961
  C       2.824693      1.243881     -0.521885
  H       1.110335      2.160464     -1.474435
  H       0.739723      1.359032      0.048554
  C       1.256958     -1.222170     -0.754144
  H       2.576471      0.091941      1.276538
  H       4.201833      0.001530      0.581745
  C       0.910040      0.007713     -1.597071
  H       0.646885     -1.193305      0.151446
  H       0.989959     -2.118759     -1.316827
  H       3.396138      1.183607     -1.450495
  H       3.105196      2.161490     -0.000702
  H       3.315053     -1.324642     -1.323913
  H       2.951080     -2.124080      0.215861
  Br     -3.298730      0.481982      1.223963
  O       1.545149     -0.142624     -2.860317
  C       1.013451      0.652611     -3.890957
  H       1.185407      1.719986     -3.717511
  H       1.525584      0.346479     -4.801152
  H      -0.066024      0.485491     -3.999118
23
Coordinates from ORCA-job optts+numfreq_product E -30.655969031260
  C       2.743582     -1.247919     -0.400619
  C       3.141481      0.024264      0.340331
  C       1.341334      1.285525     -0.859823
  H      -0.182113      0.039591     -1.746502
  C       2.827992      1.243703     -0.519823
  H       1.113704      2.160985     -1.472175
  H       0.743532      1.361163      0.051335
  C       1.259371     -1.221855     -0.753230
  H       2.581644      0.089351      1.277006
  H       4.206170     -0.000543      0.580031
  C       0.911993      0.008971     -1.594323
  H       0.650898     -1.193483      0.153484
  H       0.990473     -2.117677     -1.316167
  H       3.399561      1.186044     -1.448459
  H       3.108118      2.160213      0.003738
  H       3.316899     -1.325043     -1.325704
  H       2.954172     -2.125255      0.214068
  Br     -3.312964      0.487826      1.193933
  O       1.545295     -0.139217     -2.858841
  C       1.005751      0.650710     -3.889153
  H       1.170729      1.719940     -3.717721
  H       1.517078      0.346800     -4.800470
  H      -0.073197      0.477580     -3.993497
23
Coordinates from ORCA-job optts+numfreq_product E -30.655973274610
  C       2.746807     -1.248525     -0.401952
  C       3.145481      0.022941      0.339812
  C       1.344179      1.285812     -0.857418
  H      -0.181267      0.040343     -1.741193
  C       2.830897      1.243795     -0.517915
  H       1.116935      2.160666     -1.470717
  H       0.746819      1.363142      0.053872
  C       1.262015     -1.222008     -0.751836
  H       2.586991      0.086735      1.277412
  H       4.210545     -0.001917      0.577743
  C       0.913132      0.009397     -1.591251
  H       0.655494     -1.194128      0.156234
  H       0.991405     -2.117297     -1.314772
  H       3.402472      1.188878     -1.446678
  H       3.110481      2.159233      0.007891
  H       3.318702     -1.324697     -1.327958
  H       2.958532     -2.126297      0.211738
  Br     -3.328088      0.493105      1.162077
  O       1.543936     -0.136849     -2.857178
  C       0.998466      0.649637     -3.886667
  H       1.163217      1.719917     -3.718924
  H       1.505261      0.343915     -4.799932
  H      -0.080908      0.475875     -3.984972
23
Coordinates from ORCA-job optts+numfreq_product E -30.655977574350
  C       2.750545     -1.248943     -0.403477
  C       3.149854      0.021938      0.338849
  C       1.346521      1.285568     -0.854729
  H      -0.181345      0.039898     -1.734541
  C       2.833553      1.243985     -0.516532
  H       1.119629      2.159692     -1.469203
  H       0.749906      1.364419      0.056917
  C       1.264933     -1.222561     -0.749635
  H       2.593346      0.084244      1.277707
  H       4.215528     -0.002617      0.574389
  C       0.913388      0.009077     -1.587502
  H       0.660831     -1.195114      0.160086
  H       0.992773     -2.117579     -1.312272
  H       3.404333      1.191383     -1.445916
  H       3.112941      2.158573      0.010761
  H       3.320248     -1.323518     -1.330967
  H       2.964458     -2.127257      0.208606
  Br     -3.346265      0.498487      1.126688
  O       1.540890     -0.135723     -2.855094
  C       0.991535      0.649486     -3.883261
  H       1.161694      1.719865     -3.720068
  H       1.491160      0.338997     -4.798982
  H      -0.088954      0.479376     -3.974407
23
Coordinates from ORCA-job optts+numfreq_product E -30.655981449800
  C       2.753876     -1.248995     -0.404818
  C       3.153706      0.021651      0.337511
  C       1.347497      1.284760     -0.852350
  H      -0.182429      0.038201     -1.727947
  C       2.835134      1.244113     -0.516429
  H       1.120435      2.158310     -1.467639
  H       0.751984      1.364268      0.059953
  C       1.267349     -1.223477     -0.746967
  H       2.599427      0.082810      1.277701
  H       4.220057     -0.002261      0.570538
  C       0.912617      0.007959     -1.583866
  H       0.665578     -1.196285      0.164306
  H       0.994227     -2.118619     -1.308986
  H       3.404196      1.192447     -1.446950
  H       3.114898      2.158504      0.010801
  H       3.320987     -1.321800     -1.334075
  H       2.970563     -2.127802      0.205460
  Br     -3.363086      0.502693      1.095813
  O       1.536662     -0.136738     -2.853056
  C       0.987022      0.650492     -3.879537
  H       1.167467      1.719686     -3.720168
  H       1.478417      0.333603     -4.797678
  H      -0.095082      0.488157     -3.964201
23
Coordinates from ORCA-job optts+numfreq_product E -30.655985090960
  C       2.756619     -1.248773     -0.405844
  C       3.157147      0.022060      0.335707
  C       1.347157      1.283461     -0.850269
  H      -0.184305      0.035573     -1.721599
  C       2.835712      1.244021     -0.517873
  H       1.118909      2.156735     -1.465573
  H       0.753324      1.362543      0.063149
  C       1.269110     -1.224680     -0.743843
  H       2.605257      0.082720      1.277265
  H       4.224161     -0.000983      0.566165
  C       0.911066      0.006184     -1.580378
  H       0.669508     -1.197519      0.168845
  H       0.995495     -2.120285     -1.304915
  H       3.402077      1.191750     -1.450053
  H       3.116520      2.158963      0.007646
  H       3.320866     -1.320134     -1.337005
  H       2.976276     -2.127884      0.202824
  Br     -3.376886      0.505903      1.068535
  O       1.531633     -0.139758     -2.851071
  C       0.984809      0.652498     -3.875435
  H       1.177892      1.719468     -3.718036
  H       1.468238      0.329449     -4.795797
  H      -0.099082      0.500364     -3.955028
23
Coordinates from ORCA-job optts+numfreq_product E -30.655988189620
  C       2.758969     -1.248589     -0.406562
  C       3.160725      0.022749      0.333452
  C       1.346414      1.282002     -0.848226
  H      -0.186237      0.032939     -1.715575
  C       2.836114      1.243605     -0.520514
  H       1.115719      2.155377     -1.462483
  H       0.754971      1.359752      0.066848
  C       1.270484     -1.225876     -0.740492
  H       2.611242      0.083665      1.276361
  H       4.228313      0.000483      0.561331
  C       0.909508      0.004302     -1.576983
  H       0.672929     -1.198540      0.173520
  H       0.996413     -2.122020     -1.300463
  H       3.399128      1.189744     -1.454665
  H       3.118529      2.159547      0.002323
  H       3.320358     -1.319405     -1.339516
  H       2.981175     -2.127699      0.201149
  Br     -3.389446      0.509160      1.042054
  O       1.526748     -0.143428     -2.849108
  C       0.983474      0.654766     -3.871081
  H       1.186476      1.719481     -3.713126
  H       1.461302      0.328391     -4.793236
  H      -0.101806      0.511269     -3.947594
23
Coordinates from ORCA-job optts+numfreq_product E -30.655990918040
  C       2.761943     -1.248781     -0.407329
  C       3.165805      0.023141      0.330600
  C       1.346578      1.280606     -0.845310
  H      -0.187710      0.030973     -1.708390
  C       2.837634      1.242942     -0.523555
  H       1.112186      2.154358     -1.457575
  H       0.758468      1.356562      0.072087
  C       1.272386     -1.226879     -0.736655
  H       2.619129      0.084705      1.275096
  H       4.233998      0.001370      0.555348
  C       0.908538      0.002734     -1.572793
  H       0.677342     -1.199279      0.178987
  H       0.997224     -2.123367     -1.295492
  H       3.396764      1.187633     -1.459953
  H       3.122064      2.159802     -0.003365
  H       3.320234     -1.319968     -1.342102
  H       2.986318     -2.127637      0.199990
  Br     -3.406447      0.514226      1.006246
  O       1.521941     -0.146336     -2.846672
  C       0.980221      0.656656     -3.865941
  H       1.188469      1.719911     -3.706094
  H       1.454389      0.329915     -4.789790
  H      -0.105969      0.518390     -3.939924
23
Coordinates from ORCA-job optts+numfreq_product E -30.655993394110
  C       2.767732     -1.249665     -0.408800
  C       3.175272      0.022968      0.326028
  C       1.348607      1.278736     -0.839743
  H      -0.189174      0.029051     -1.695650
  C       2.841663      1.242051     -0.527205
  H       1.108296      2.152960     -1.448946
  H       0.765953      1.352314      0.081428
  C       1.276526     -1.228060     -0.730590
  H       2.633290      0.085196      1.273195
  H       4.244493      0.001659      0.545370
  C       0.907960      0.000951     -1.565372
  H       0.686048     -1.200158      0.187996
  H       0.998771     -2.124688     -1.287869
  H       3.395156      1.186166     -1.466886
  H       3.128868      2.159575     -0.009585
  H       3.321193     -1.321882     -1.346327
  H       2.995146     -2.128023      0.198168
  Br     -3.438806      0.524176      0.938321
  O       1.514659     -0.148760     -2.842414
  C       0.971497      0.658669     -3.857475
  H       1.184570      1.720777     -3.696256
  H       1.439613      0.331980     -4.784292
  H      -0.115830      0.525684     -3.925678
23
Coordinates from ORCA-job optts+numfreq_product E -30.655994354670
  C       2.769068     -1.249826     -0.409289
  C       3.177521      0.023006      0.324712
  C       1.349202      1.278509     -0.838538
  H      -0.189164      0.028502     -1.692883
  C       2.842563      1.241984     -0.528027
  H       1.107209      2.152818     -1.446925
  H       0.768025      1.352066      0.083507
  C       1.277477     -1.228721     -0.729562
  H       2.636853      0.085340      1.272635
  H       4.247046      0.001864      0.542482
  C       0.908024      0.000477     -1.563710
  H       0.688075     -1.201363      0.189656
  H       0.999188     -2.125325     -1.286640
  H       3.395103      1.186506     -1.468267
  H       3.130141      2.159440     -0.010449
  H       3.321761     -1.322597     -1.347210
  H       2.997006     -2.127762      0.198095
  Br     -3.449351      0.526428      0.924240
  O       1.513299     -0.149245     -2.841354
  C       0.969858      0.658918     -3.855536
  H       1.185258      1.720832     -3.695098
  H       1.435338      0.331064     -4.783219
  H      -0.117996      0.528759     -3.921207
23
Coordinates from ORCA-job optts+numfreq_product E -30.655994958860
  C       2.770754     -1.250202     -0.409840
  C       3.180292      0.022728      0.323336
  C       1.350188      1.278244     -0.836712
  H      -0.189130      0.028165     -1.689549
  C       2.843950      1.241950     -0.528479
  H       1.106620      2.152577     -1.444416
  H       0.770575      1.351737      0.086349
  C       1.278763     -1.229213     -0.728298
  H       2.641425      0.084942      1.272302
  H       4.250257      0.001625      0.538983
  C       0.908138      0.000237     -1.561549
  H       0.690648     -1.202454      0.191748
  H       0.999714     -2.125646     -1.285246
  H       3.395314      1.187199     -1.469442
  H       3.132092      2.159129     -0.010689
  H       3.322485     -1.323467     -1.348272
  H       2.999302     -2.127791      0.197840
  Br     -3.460318      0.530297      0.904729
  O       1.512094     -0.148544     -2.839818
  C       0.966757      0.658999     -3.853246
  H       1.181980      1.721277     -3.693590
  H       1.430802      0.331049     -4.781630
  H      -0.121198      0.528839     -3.917094
23
Coordinates from ORCA-job optts+numfreq_product E -30.655995419290
  C       2.773433     -1.250689     -0.410749
  C       3.184530      0.022344      0.321368
  C       1.351396      1.277678     -0.833716
  H      -0.189368      0.027538     -1.684247
  C       2.845887      1.241880     -0.529133
  H       1.105607      2.152109     -1.440384
  H       0.774090      1.350572      0.090894
  C       1.280811     -1.229788     -0.726203
  H       2.648376      0.084274      1.271871
  H       4.255147      0.001366      0.533895
  C       0.908113     -0.000143     -1.558175
  H       0.694677     -1.203691      0.195122
  H       1.000699     -2.126025     -1.282933
  H       3.395107      1.187897     -1.471383
  H       3.135028      2.158802     -0.011450
  H       3.323388     -1.324290     -1.350187
  H       3.003186     -2.128018      0.196861
  Br     -3.476516      0.536531      0.874770
  O       1.509922     -0.147896     -2.837525
  C       0.962171      0.659246     -3.849790
  H       1.177866      1.721682     -3.691161
  H       1.423905      0.330966     -4.779245
  H      -0.125955      0.529329     -3.911083
23
Coordinates from ORCA-job optts+numfreq_product E -30.655995591770
  C       2.779864     -1.251824     -0.412750
  C       3.194301      0.021578      0.316900
  C       1.353857      1.276014     -0.826906
  H      -0.190122      0.025708     -1.671795
  C       2.850107      1.241593     -0.530893
  H       1.102946      2.150677     -1.431162
  H       0.781830      1.347009      0.101251
  C       1.285813     -1.231137     -0.721154
  H       2.664154      0.082940      1.270753
  H       4.266312      0.001088      0.522576
  C       0.907955     -0.001367     -1.550419
  H       0.704297     -1.206225      0.203111
  H       1.003399     -2.127079     -1.277225
  H       3.394106      1.188957     -1.476224
  H       3.141551      2.158203     -0.013992
  H       3.325517     -1.326007     -1.354635
  H       3.012625     -2.128667      0.194406
  Br     -3.513426      0.551562      0.805103
  O       1.504419     -0.147102     -2.832475
  C       0.951704      0.660249     -3.841630
  H       1.169693      1.722567     -3.684842
  H       1.407517      0.331142     -4.773784
  H      -0.136919      0.531797     -3.896798
23
Coordinates from ORCA-job optts+numfreq_product E -30.655996104970
  C       2.778094     -1.251235     -0.412532
  C       3.191580      0.021898      0.318091
  C       1.352788      1.276561     -0.828457
  H      -0.189727      0.025756     -1.675491
  C       2.848535      1.241743     -0.530194
  H       1.103478      2.151236     -1.433375
  H       0.779367      1.348230      0.098648
  C       1.284354     -1.231181     -0.722849
  H       2.660221      0.083066      1.271279
  H       4.263320      0.001433      0.525220
  C       0.907975     -0.001069     -1.552488
  H       0.701423     -1.206598      0.200520
  H       1.002981     -2.127183     -1.279371
  H       3.393795      1.188711     -1.474784
  H       3.139374      2.158428     -0.013118
  H       3.324924     -1.324748     -1.353799
  H       3.010302     -2.128321      0.194467
  Br     -3.505027      0.549078      0.826424
  O       1.506433     -0.147249     -2.833609
  C       0.955179      0.659765     -3.843925
  H       1.172806      1.722052     -3.687048
  H       1.412606      0.330474     -4.775234
  H      -0.133278      0.530828     -3.900957
23
Coordinates from ORCA-job optts+numfreq_product E -30.655996509830
  C       2.778910     -1.251203     -0.412878
  C       3.192434      0.021824      0.317907
  C       1.352753      1.276278     -0.827778
  H      -0.189661      0.025197     -1.674527
  C       2.848682      1.241592     -0.530187
  H       1.103333      2.151000     -1.432588
  H       0.779584      1.347669      0.099483
  C       1.285006     -1.231498     -0.722467
  H       2.661444      0.082720      1.271314
  H       4.264240      0.001573      0.524655
  C       0.908070     -0.001335     -1.551844
  H       0.702396     -1.207055      0.201112
  H       1.003696     -2.127511     -1.278982
  H       3.393349      1.188432     -1.475120
  H       3.139685      2.158416     -0.013450
  H       3.325206     -1.324164     -1.354499
  H       3.011686     -2.128510      0.193586
  Br     -3.508701      0.552353      0.820950
  O       1.506169     -0.147271     -2.833241
  C       0.954265      0.659839     -3.843227
  H       1.171407      1.722085     -3.685952
  H       1.411659      0.331107     -4.774751
  H      -0.134107      0.530138     -3.900099
