23
Coordinates from ORCA-job optts+numfreq_TSOpt E -30.551919757850
  C       0.632699     -1.177149      1.085621
  C       0.651105      0.023700      2.021722
  C      -0.869096      1.262265      0.453497
  H      -1.030827      0.074387     -1.446929
  C       0.469754      1.293209      1.200223
  H      -0.974289      2.153130     -0.168537
  H      -1.662238      1.270134      1.206950
  C      -0.705309     -1.253961      0.340364
  H      -0.153217     -0.063916      2.757577
  H       1.602793      0.061483      2.555977
  C      -1.019685      0.023817     -0.380086
  H      -1.484164     -1.430541      1.087960
  H      -0.701978     -2.093419     -0.358125
  H       1.268219      1.359468      0.461561
  H       0.492391      2.178088      1.840419
  H       1.426081     -1.064356      0.346172
  H       0.779865     -2.107415      1.638984
  Br     -3.405452     -0.127372     -0.518996
  O       1.020154      0.205049     -1.522389
  C       0.930555     -0.078863     -2.829560
  H       0.251045      0.609423     -3.398839
  H       1.921650     -0.002699     -3.330986
  H       0.559943     -1.114461     -3.042581
23
Coordinates from ORCA-job optts+numfreq_TSOpt E -30.552052307280
  C       0.632694     -1.177459      1.075713
  C       0.654429      0.023040      2.012246
  C      -0.872537      1.263801      0.453710
  H      -1.034471      0.078198     -1.446324
  C       0.469635      1.293668      1.193191
  H      -0.979495      2.154197     -0.168774
  H      -1.663562      1.272583      1.209743
  C      -0.707735     -1.254045      0.336110
  H      -0.146868     -0.065298      2.751138
  H       1.608382      0.060528      2.542160
  C      -1.019283      0.026065     -0.380144
  H      -1.484688     -1.434772      1.085054
  H      -0.705313     -2.090765     -0.365736
  H       1.263583      1.359411      0.449662
  H       0.496807      2.178368      1.832961
  H       1.422180     -1.063200      0.332387
  H       0.783194     -2.108281      1.626776
  Br     -3.405003     -0.126468     -0.521531
  O       1.016874      0.211627     -1.503508
  C       0.931925     -0.080616     -2.809211
  H       0.250561      0.601904     -3.381991
  H       1.923493     -0.003910     -3.309088
  H       0.565199     -1.118577     -3.014542
23
Coordinates from ORCA-job optts+numfreq_TSOpt E -30.552140515010
  C       0.634445     -1.176730      1.064688
  C       0.656725      0.021343      2.004368
  C      -0.874660      1.266942      0.454542
  H      -1.037253      0.087265     -1.448684
  C       0.469980      1.294571      1.189700
  H      -0.983249      2.158487     -0.166218
  H      -1.664041      1.274287      1.212183
  C      -0.707352     -1.252269      0.327312
  H      -0.143517     -0.069614      2.744102
  H       1.611632      0.057833      2.532585
  C      -1.019605      0.031324     -0.382598
  H      -1.482958     -1.438878      1.076071
  H      -0.704571     -2.085110     -0.379366
  H       1.260874      1.361122      0.443103
  H       0.500609      2.177872      1.831311
  H       1.421793     -1.058704      0.319679
  H       0.787809     -2.109189      1.612349
  Br     -3.406412     -0.124028     -0.522973
  O       1.011699      0.225423     -1.487249
  C       0.930640     -0.086212     -2.788549
  H       0.242494      0.581837     -3.369877
  H       1.921370     -0.007133     -3.288826
  H       0.573547     -1.130439     -2.977654
23
Coordinates from ORCA-job optts+numfreq_TSOpt E -30.552208685260
  C       0.638220     -1.174235      1.047002
  C       0.658082      0.017611      1.994684
  C      -0.876632      1.273309      0.457390
  H      -1.038210      0.107193     -1.453399
  C       0.470006      1.296419      1.188944
  H      -0.986839      2.168079     -0.158578
  H      -1.664280      1.276082      1.216586
  C      -0.703771     -1.247200      0.309645
  H      -0.142880     -0.079590      2.732867
  H       1.612624      0.051743      2.523667
  C      -1.023793      0.042496     -0.387335
  H      -1.478018     -1.445115      1.056610
  H      -0.698388     -2.072423     -0.406226
  H       1.258358      1.366734      0.440241
  H       0.503469      2.175817      1.835883
  H       1.424817     -1.048503      0.302493
  H       0.794484     -2.110258      1.588015
  Br     -3.403282     -0.118221     -0.521222
  O       1.003981      0.254378     -1.470072
  C       0.926458     -0.099183     -2.759651
  H       0.222152      0.536206     -3.358658
  H       1.913719     -0.015252     -3.264976
  H       0.589724     -1.156088     -2.913910
23
Coordinates from ORCA-job optts+numfreq_TSOpt E -30.552227563320
  C       0.638033     -1.174035      1.043430
  C       0.656885      0.016754      1.992543
  C      -0.877669      1.275020      0.458404
  H      -1.038671      0.111605     -1.453051
  C       0.469440      1.296570      1.188174
  H      -0.987499      2.169768     -0.157630
  H      -1.664614      1.278598      1.218557
  C      -0.703500     -1.246785      0.306001
  H      -0.145042     -0.081410      2.729542
  H       1.610820      0.050264      2.522590
  C      -1.028180      0.044563     -0.387154
  H      -1.477209     -1.449287      1.052504
  H      -0.696631     -2.069436     -0.412917
  H       1.256824      1.366616      0.438579
  H       0.504459      2.175427      1.835636
  H       1.424844     -1.046627      0.299481
  H       0.794709     -2.110675      1.583180
  Br     -3.397343     -0.116899     -0.514216
  O       1.008406      0.263515     -1.468901
  C       0.927585     -0.101273     -2.754663
  H       0.217607      0.525899     -3.356209
  H       1.912280     -0.017297     -3.265197
  H       0.594466     -1.160874     -2.898685
23
Coordinates from ORCA-job optts+numfreq_TSOpt E -30.552236052680
  C       0.637759     -1.174936      1.041135
  C       0.653965      0.016246      1.989836
  C      -0.877501      1.276363      0.456508
  H      -1.043522      0.113250     -1.454344
  C       0.470176      1.295655      1.184189
  H      -0.986023      2.169534     -0.162040
  H      -1.664053      1.284513      1.217398
  C      -0.702102     -1.248583      0.301277
  H      -0.150984     -0.081039      2.723719
  H       1.606105      0.049340      2.523065
  C      -1.026991      0.045147     -0.388673
  H      -1.476118     -1.458569      1.045718
  H      -0.692071     -2.067785     -0.421620
  H       1.255561      1.360621      0.432105
  H       0.509744      2.175656      1.829522
  H       1.425358     -1.045876      0.298264
  H       0.794676     -2.111347      1.580913
  Br     -3.390352     -0.116066     -0.502336
  O       1.014916      0.275413     -1.461960
  C       0.927204     -0.100112     -2.745375
  H       0.211484      0.521442     -3.345440
  H       1.907838     -0.017988     -3.263962
  H       0.594931     -1.160877     -2.877899
23
Coordinates from ORCA-job optts+numfreq_TSOpt E -30.552240909680
  C       0.638537     -1.174381      1.043001
  C       0.654175      0.016479      1.992114
  C      -0.876334      1.276090      0.456338
  H      -1.042886      0.111882     -1.454611
  C       0.470245      1.296143      1.186791
  H      -0.984443      2.169583     -0.161863
  H      -1.663808      1.283626      1.216051
  C      -0.701243     -1.248129      0.302596
  H      -0.150814     -0.081331      2.725860
  H       1.606135      0.049672      2.525682
  C      -1.024921      0.044719     -0.388908
  H      -1.475615     -1.456238      1.046986
  H      -0.691410     -2.068428     -0.419039
  H       1.257221      1.362783      0.436527
  H       0.507539      2.175715      1.832955
  H       1.426581     -1.045401      0.300600
  H       0.795226     -2.110872      1.582778
  Br     -3.394896     -0.116872     -0.505924
  O       1.012137      0.269723     -1.464982
  C       0.925797     -0.100609     -2.750069
  H       0.213316      0.524985     -3.349644
  H       1.907847     -0.018975     -3.265816
  H       0.591615     -1.160163     -2.887423
23
Coordinates from ORCA-job optts+numfreq_TSOpt E -30.552243596410
  C       0.639273     -1.173697      1.043301
  C       0.653190      0.016273      1.993543
  C      -0.875466      1.276779      0.456350
  H      -1.043098      0.112689     -1.454698
  C       0.470049      1.296519      1.188943
  H      -0.982306      2.170203     -0.162174
  H      -1.663811      1.285125      1.215096
  C      -0.699842     -1.247705      0.301751
  H      -0.152908     -0.082460      2.725930
  H       1.604282      0.049262      2.528664
  C      -1.024644      0.045286     -0.389012
  H      -1.474472     -1.457389      1.045370
  H      -0.688709     -2.067296     -0.420694
  H       1.258316      1.364209      0.440136
  H       0.506018      2.175518      1.835963
  H       1.428120     -1.043688      0.301942
  H       0.795969     -2.110563      1.582441
  Br     -3.395008     -0.117050     -0.504342
  O       1.011940      0.269168     -1.467344
  C       0.924534     -0.101977     -2.752122
  H       0.212503      0.523783     -3.352109
  H       1.906459     -0.021568     -3.268357
  H       0.589611     -1.161420     -2.888576
