23
Coordinates from ORCA-job optts+numfreq_TSOpt_IRC_B E -30.553850045640
  C       0.632121     -1.169381      1.036616
  C       0.651913      0.016342      1.991017
  C      -0.896044      1.277986      0.471402
  H      -0.981137      0.116489     -1.424540
  C       0.463159      1.292513      1.182400
  H      -0.994141      2.164043     -0.159665
  H      -1.669720      1.317097      1.245924
  C      -0.719826     -1.252912      0.315905
  H      -0.149824     -0.082714      2.728163
  H       1.606478      0.049924      2.519593
  C      -1.109777      0.037783     -0.354811
  H      -1.475651     -1.493195      1.071461
  H      -0.700922     -2.062131     -0.418543
  H       1.241298      1.351850      0.422003
  H       0.510299      2.176065      1.822729
  H       1.409011     -1.030058      0.283711
  H       0.801233     -2.108768      1.567930
  Br     -3.382427     -0.116143     -0.503937
  O       1.045136      0.273842     -1.493969
  C       0.936608     -0.101687     -2.762908
  H       0.214771      0.522645     -3.365501
  H       1.908292     -0.037559     -3.316791
  H       0.588279     -1.164301     -2.896407
23
Coordinates from ORCA-job optts+numfreq_TSOpt_IRC_B E -30.556270763990
  C       0.626360     -1.167834      1.033203
  C       0.651182      0.016442      1.989544
  C      -0.905622      1.277758      0.475306
  H      -0.981158      0.115595     -1.409707
  C       0.457487      1.290780      1.179058
  H      -0.995337      2.162580     -0.158350
  H      -1.673316      1.319647      1.250161
  C      -0.729294     -1.254144      0.319569
  H      -0.149535     -0.082727      2.728082
  H       1.606257      0.049961      2.518783
  C      -1.145192      0.035005     -0.346368
  H      -1.478746     -1.496728      1.075223
  H      -0.702269     -2.060983     -0.417079
  H       1.239586      1.351285      0.421116
  H       0.510114      2.174857      1.820898
  H       1.407275     -1.029414      0.282683
  H       0.801019     -2.107297      1.566047
  Br     -3.331554     -0.112493     -0.501607
  O       1.066734      0.277949     -1.509697
  C       0.942307     -0.101619     -2.769353
  H       0.214590      0.523070     -3.367365
  H       1.910080     -0.038705     -3.321162
  H       0.588160     -1.165253     -2.897202
23
Coordinates from ORCA-job optts+numfreq_TSOpt_IRC_B E -30.559123607080
  C       0.623080     -1.166012      1.031227
  C       0.649398      0.016446      1.988387
  C      -0.912788      1.278018      0.481524
  H      -0.968257      0.115694     -1.397140
  C       0.454330      1.289000      1.177081
  H      -0.998569      2.161228     -0.157344
  H      -1.678335      1.326955      1.259153
  C      -0.736275     -1.255988      0.325612
  H      -0.149890     -0.082844      2.728551
  H       1.604631      0.050033      2.515798
  C      -1.185798      0.031878     -0.339953
  H      -1.482602     -1.505638      1.083094
  H      -0.705657     -2.059968     -0.416048
  H       1.234953      1.349722      0.418443
  H       0.508127      2.173265      1.817875
  H       1.402536     -1.027917      0.279876
  H       0.798968     -2.105451      1.562857
  Br     -3.282998     -0.109001     -0.497845
  O       1.085658      0.283330     -1.519226
  C       0.950035     -0.098831     -2.768825
  H       0.213901      0.523716     -3.372420
  H       1.916486     -0.042586     -3.339451
  H       0.588195     -1.167319     -2.899442
23
Coordinates from ORCA-job optts+numfreq_TSOpt_IRC_B E -30.561682353520
  C       0.616365     -1.164473      1.027282
  C       0.646726      0.016368      1.987610
  C      -0.924185      1.277441      0.488107
  H      -0.951631      0.115659     -1.378027
  C       0.447755      1.287309      1.173171
  H      -1.002636      2.158961     -0.155016
  H      -1.682068      1.337001      1.268970
  C      -0.747590     -1.257589      0.331976
  H      -0.150385     -0.083001      2.729067
  H       1.604344      0.050174      2.513364
  C      -1.216691      0.029411     -0.332652
  H      -1.484833     -1.517166      1.091571
  H      -0.709960     -2.058325     -0.413682
  H       1.229514      1.347505      0.414686
  H       0.506100      2.172277      1.814849
  H       1.396928     -1.025662      0.275961
  H       0.797039     -2.104203      1.559535
  Br     -3.238133     -0.105702     -0.494200
  O       1.107693      0.289040     -1.532677
  C       0.960026     -0.097035     -2.774810
  H       0.216302      0.523302     -3.375550
  H       1.918072     -0.047449     -3.357554
  H       0.590378     -1.166114     -2.900198
23
Coordinates from ORCA-job optts+numfreq_TSOpt_IRC_B E -30.563722116240
  C       0.611083     -1.163302      1.025640
  C       0.643725      0.016337      1.985370
  C      -0.932404      1.279031      0.497278
  H      -0.928738      0.116133     -1.358198
  C       0.442500      1.285904      1.171812
  H      -1.009889      2.156634     -0.152514
  H      -1.688994      1.349526      1.282367
  C      -0.755468     -1.261219      0.340752
  H      -0.151147     -0.083250      2.730094
  H       1.601737      0.050318      2.508363
  C      -1.230782      0.027669     -0.318942
  H      -1.489798     -1.531882      1.103221
  H      -0.717430     -2.056982     -0.411198
  H       1.219785      1.344339      0.409612
  H       0.503364      2.170878      1.810130
  H       1.386844     -1.022695      0.270773
  H       0.794446     -2.102346      1.554405
  Br     -3.209328     -0.103317     -0.493512
  O       1.134873      0.297055     -1.546263
  C       0.968816     -0.095438     -2.782676
  H       0.219226      0.523952     -3.380561
  H       1.923052     -0.053709     -3.383247
  H       0.593655     -1.165904     -2.900923
23
Coordinates from ORCA-job optts+numfreq_TSOpt_IRC_B E -30.565555957200
  C       0.604851     -1.164306      1.024602
  C       0.640112      0.016162      1.984878
  C      -0.942205      1.280898      0.507545
  H      -0.902372      0.116738     -1.334220
  C       0.436009      1.286536      1.171367
  H      -1.019249      2.153602     -0.147751
  H      -1.694741      1.361722      1.294740
  C      -0.764867     -1.265348      0.350420
  H      -0.152576     -0.083641      2.731612
  H       1.600849      0.050555      2.503648
  C      -1.232068      0.026852     -0.303625
  H      -1.493638     -1.545894      1.113922
  H      -0.727145     -2.055567     -0.406443
  H       1.208554      1.340628      0.402470
  H       0.503122      2.172646      1.808151
  H       1.375234     -1.018832      0.263404
  H       0.794935     -2.103575      1.551460
  Br     -3.199112     -0.101921     -0.498147
  O       1.164511      0.305206     -1.564157
  C       0.982008     -0.094191     -2.796299
  H       0.224633      0.523929     -3.384904
  H       1.923367     -0.061383     -3.410400
  H       0.598919     -1.163084     -2.900488
23
Coordinates from ORCA-job optts+numfreq_TSOpt_IRC_B E -30.567188327970
  C       0.601326     -1.164642      1.025791
  C       0.637424      0.015967      1.984974
  C      -0.949968      1.283587      0.519592
  H      -0.876457      0.117639     -1.311979
  C       0.432278      1.286622      1.173212
  H      -1.030029      2.151961     -0.142680
  H      -1.701892      1.370760      1.307523
  C      -0.772041     -1.270205      0.361748
  H      -0.152815     -0.083978      2.732978
  H       1.599170      0.050730      2.499042
  C      -1.236673      0.025878     -0.289983
  H      -1.499235     -1.556943      1.125323
  H      -0.738232     -2.055642     -0.401543
  H       1.195710      1.337491      0.396276
  H       0.505364      2.174131      1.806580
  H       1.362072     -1.015557      0.256842
  H       0.797969     -2.104117      1.548741
  Br     -3.192969     -0.100505     -0.507962
  O       1.194830      0.313730     -1.581586
  C       0.991773     -0.092865     -2.807811
  H       0.229825      0.524768     -3.391350
  H       1.927159     -0.069250     -3.441133
  H       0.604540     -1.161831     -2.900811
23
Coordinates from ORCA-job optts+numfreq_TSOpt_IRC_B E -30.568626924920
  C       0.595400     -1.166108      1.024929
  C       0.635208      0.015886      1.985085
  C      -0.960240      1.284241      0.530188
  H      -0.853552      0.118389     -1.289407
  C       0.425936      1.287856      1.173214
  H      -1.041035      2.149667     -0.134509
  H      -1.708509      1.377106      1.320045
  C      -0.782051     -1.273059      0.371729
  H      -0.153429     -0.084498      2.736059
  H       1.600315      0.050929      2.496853
  C      -1.236232      0.025432     -0.276598
  H      -1.504664     -1.565160      1.136861
  H      -0.749662     -2.055497     -0.393613
  H       1.184198      1.334436      0.390152
  H       0.509422      2.175553      1.806361
  H       1.350303     -1.011980      0.250241
  H       0.802962     -2.104549      1.547197
  Br     -3.187241     -0.098914     -0.521660
  O       1.223578      0.321377     -1.601181
  C       1.005295     -0.092013     -2.823345
  H       0.236128      0.524669     -3.397081
  H       1.926180     -0.077312     -3.468760
  H       0.610820     -1.158721     -2.900976
23
Coordinates from ORCA-job optts+numfreq_TSOpt_IRC_B E -30.569835772340
  C       0.594100     -1.164668      1.027584
  C       0.633273      0.015619      1.986552
  C      -0.966545      1.286310      0.543254
  H      -0.831050      0.119470     -1.271314
  C       0.424620      1.286357      1.176455
  H      -1.053494      2.149547     -0.126836
  H      -1.716178      1.379598      1.333004
  C      -0.787737     -1.277068      0.384061
  H      -0.151102     -0.084732      2.737587
  H       1.598231      0.051043      2.492641
  C      -1.240874      0.024751     -0.266956
  H      -1.511552     -1.569646      1.149172
  H      -0.762332     -2.057368     -0.386398
  H       1.171594      1.331747      0.385130
  H       0.512913      2.176216      1.805363
  H       1.337461     -1.008935      0.244632
  H       0.807316     -2.103992      1.544726
  Br     -3.181700     -0.097149     -0.538346
  O       1.251378      0.329216     -1.618215
  C       1.012154     -0.090870     -2.833483
  H       0.240909      0.525539     -3.405206
  H       1.931370     -0.084827     -3.498969
  H       0.616373     -1.158428     -2.902653
23
Coordinates from ORCA-job optts+numfreq_TSOpt_IRC_B E -30.570186290820
  C       0.591778     -1.165552      1.026472
  C       0.632890      0.015647      1.986578
  C      -0.969965      1.285717      0.545551
  H      -0.825873      0.119667     -1.265673
  C       0.422097      1.287223      1.175659
  H      -1.056619      2.148941     -0.123321
  H      -1.717401      1.379570      1.336164
  C      -0.791206     -1.277030      0.386231
  H      -0.151360     -0.084945      2.739131
  H       1.599855      0.051132      2.492856
  C      -1.239017      0.024850     -0.263900
  H      -1.512680     -1.570013      1.152318
  H      -0.765564     -2.057488     -0.383023
  H       1.169003      1.330878      0.383746
  H       0.514227      2.176624      1.805730
  H       1.334830     -1.007830      0.243060
  H       0.808937     -2.104174      1.544643
  Br     -3.180120     -0.096639     -0.543491
  O       1.257948      0.330828     -1.623835
  C       1.016857     -0.090842     -2.838831
  H       0.242728      0.525248     -3.406642
  H       1.929676     -0.086869     -3.504806
  H       0.618108     -1.157214     -2.902833
23
Coordinates from ORCA-job optts+numfreq_TSOpt_IRC_B E -30.570728422850
  C       0.588790     -1.166419      1.027614
  C       0.633813      0.015750      1.986182
  C      -0.973776      1.285519      0.550146
  H      -0.816127      0.120165     -1.257021
  C       0.418692      1.287879      1.177536
  H      -1.062643      2.148554     -0.117899
  H      -1.720399      1.379037      1.342361
  C      -0.795020     -1.277626      0.390683
  H      -0.151295     -0.085240      2.741408
  H       1.600245      0.051219      2.491784
  C      -1.238635      0.024834     -0.259563
  H      -1.515487     -1.570330      1.158414
  H      -0.771693     -2.058282     -0.377910
  H       1.164604      1.329523      0.380737
  H       0.516076      2.176594      1.805388
  H       1.330205     -1.006000      0.239902
  H       0.811204     -2.103696      1.543618
  Br     -3.177209     -0.095711     -0.552761
  O       1.269800      0.333952     -1.632673
  C       1.022227     -0.090631     -2.845902
  H       0.245446      0.525096     -3.409975
  H       1.929384     -0.090344     -3.516662
  H       0.620925     -1.156110     -2.903624
23
Coordinates from ORCA-job optts+numfreq_TSOpt_IRC_B E -30.571308774590
  C       0.587160     -1.166281      1.028375
  C       0.633483      0.015697      1.986865
  C      -0.977708      1.285619      0.556216
  H      -0.804491      0.120872     -1.248076
  C       0.416925      1.287783      1.178793
  H      -1.069965      2.148523     -0.111668
  H      -1.723997      1.377530      1.349553
  C      -0.798794     -1.278631      0.396431
  H      -0.149887     -0.085450      2.743172
  H       1.600490      0.051336      2.490132
  C      -1.239186      0.024742     -0.254921
  H      -1.518997     -1.569839      1.165621
  H      -0.779089     -2.059573     -0.372067
  H       1.158466      1.328095      0.378332
  H       0.517851      2.176733      1.805078
  H       1.323994     -1.004231      0.237109
  H       0.813496     -2.103298      1.542418
  Br     -3.173678     -0.094581     -0.564057
  O       1.283363      0.337564     -1.642507
  C       1.026731     -0.090319     -2.852643
  H       0.248306      0.525095     -3.414323
  H       1.930610     -0.094260     -3.531157
  H       0.624045     -1.155397     -2.904894
23
Coordinates from ORCA-job optts+numfreq_TSOpt_IRC_B E -30.571862366070
  C       0.584688     -1.166515      1.028527
  C       0.633314      0.015661      1.987410
  C      -0.982413      1.285060      0.561835
  H      -0.793254      0.121562     -1.238927
  C       0.414200      1.287988      1.179503
  H      -1.077349      2.148448     -0.104697
  H      -1.727162      1.375180      1.356641
  C      -0.803406     -1.278992      0.401776
  H      -0.148719     -0.085718      2.745477
  H       1.601757      0.051498      2.488926
  C      -1.238292      0.024811     -0.250542
  H      -1.522177     -1.568438      1.172825
  H      -0.786540     -2.060894     -0.365528
  H       1.152911      1.326733      0.375811
  H       0.519648      2.177155      1.805150
  H       1.318339     -1.002408      0.234227
  H       0.815851     -2.103177      1.541500
  Br     -3.169940     -0.093381     -0.575952
  O       1.296136      0.340855     -1.652567
  C       1.032704     -0.090089     -2.860510
  H       0.251183      0.524967     -3.418506
  H       1.930512     -0.098115     -3.544432
  H       0.627138     -1.154460     -2.906164
23
Coordinates from ORCA-job optts+numfreq_TSOpt_IRC_B E -30.572390854610
  C       0.583047     -1.166253      1.029368
  C       0.633325      0.015653      1.988026
  C      -0.986275      1.284768      0.567957
  H      -0.781749      0.122329     -1.230574
  C       0.412384      1.287759      1.180872
  H      -1.085174      2.148739     -0.097671
  H      -1.730568      1.371844      1.363922
  C      -0.807141     -1.279547      0.407561
  H      -0.146889     -0.085935      2.747537
  H       1.602389      0.051656      2.487138
  C      -1.238375      0.024857     -0.246959
  H      -1.525649     -1.566150      1.180294
  H      -0.794362     -2.062569     -0.359010
  H       1.147116      1.325577      0.373588
  H       0.521077      2.177323      1.804926
  H       1.312493     -1.000826      0.231594
  H       0.817808     -2.102839      1.540295
  Br     -3.165868     -0.092052     -0.588478
  O       1.308750      0.344110     -1.662268
  C       1.036879     -0.089940     -2.867381
  H       0.254025      0.524832     -3.423025
  H       1.931645     -0.101843     -3.558152
  H       0.630240     -1.153762     -2.907777
23
Coordinates from ORCA-job optts+numfreq_TSOpt_IRC_B E -30.572896440600
  C       0.580689     -1.166475      1.029515
  C       0.633453      0.015647      1.988538
  C      -0.990800      1.283924      0.573504
  H      -0.770529      0.123100     -1.222183
  C       0.409760      1.288003      1.181615
  H      -1.093035      2.148892     -0.089893
  H      -1.733569      1.367722      1.371076
  C      -0.811591     -1.279548      0.412820
  H      -0.145210     -0.086197      2.750055
  H       1.604033      0.051866      2.485741
  C      -1.237133      0.025033     -0.243352
  H      -1.528829     -1.563036      1.187732
  H      -0.802215     -2.064179     -0.351796
  H       1.141736      1.324508      0.371398
  H       0.522473      2.177677      1.805040
  H       1.307073     -0.999260      0.228987
  H       0.819752     -2.102703      1.539361
  Br     -3.161616     -0.090632     -0.601527
  O       1.320532      0.347052     -1.672110
  C       1.042412     -0.089810     -2.875052
  H       0.256798      0.524630     -3.427457
  H       1.931690     -0.105487     -3.570779
  H       0.633257     -1.152996     -2.909449
23
Coordinates from ORCA-job optts+numfreq_TSOpt_IRC_B E -30.573379393780
  C       0.579108     -1.166155      1.030357
  C       0.633741      0.015653      1.989199
  C      -0.994588      1.283262      0.579433
  H      -0.759063      0.123958     -1.214461
  C       0.408001      1.287747      1.183006
  H      -1.101274      2.149403     -0.082135
  H      -1.736762      1.362755      1.378389
  C      -0.815289     -1.279659      0.418411
  H      -0.142841     -0.086406      2.752277
  H       1.605071      0.052078      2.483718
  C      -1.236795      0.025196     -0.240521
  H      -1.532284     -1.559140      1.195390
  H      -0.810382     -2.066128     -0.344680
  H       1.136203      1.323708      0.369439
  H       0.523481      2.177860      1.804962
  H       1.301548     -0.997985      0.226560
  H       0.821284     -2.102432      1.538233
  Br     -3.157026     -0.089110     -0.615070
  O       1.332020      0.349903     -1.681590
  C       1.046386     -0.089774     -2.881905
  H       0.259559      0.524392     -3.432138
  H       1.932753     -0.108983     -3.583635
  H       0.636277     -1.152415     -2.911454
23
Coordinates from ORCA-job optts+numfreq_TSOpt_IRC_B E -30.573841710930
  C       0.576783     -1.166402      1.030457
  C       0.634146      0.015677      1.989641
  C      -0.998972      1.282144      0.584851
  H      -0.747871      0.124824     -1.206720
  C       0.405408      1.288047      1.183731
  H      -1.109499      2.149720     -0.073694
  H      -1.739542      1.357115      1.385503
  C      -0.819633     -1.279311      0.423522
  H      -0.140647     -0.086666      2.754989
  H       1.607179      0.052345      2.482074
  C      -1.235189      0.025478     -0.237603
  H      -1.535426     -1.554515      1.202926
  H      -0.818537     -2.067936     -0.336921
  H       1.131055      1.323029      0.367563
  H       0.524420      2.178182      1.805222
  H       1.296409     -0.996773      0.224204
  H       0.822759     -2.102332      1.537392
  Br     -3.152250     -0.087501     -0.629034
  O       1.342668      0.352446     -1.691109
  C       1.051484     -0.089775     -2.889425
  H       0.262246      0.524096     -3.436763
  H       1.932925     -0.112364     -3.595467
  H       0.639214     -1.151796     -2.913555
23
Coordinates from ORCA-job optts+numfreq_TSOpt_IRC_B E -30.574282451410
  C       0.575375     -1.165974      1.031379
  C       0.634674      0.015701      1.990323
  C      -1.002578      1.281221      0.590658
  H      -0.736438      0.125773     -1.199602
  C       0.403845      1.287714      1.185196
  H      -1.118097      2.150427     -0.065445
  H      -1.742557      1.350776      1.392756
  C      -0.823176     -1.279079      0.428980
  H      -0.137654     -0.086847      2.757283
  H       1.608532      0.052608      2.479667
  C      -1.234633      0.025741     -0.235524
  H      -1.538877     -1.549270      1.210646
  H      -0.826967     -2.070089     -0.329431
  H       1.125734      1.322677      0.365917
  H       0.524940      2.178360      1.805325
  H       1.291144     -0.995919      0.222020
  H       0.823778     -2.102127      1.536394
  Br     -3.147093     -0.085796     -0.643341
  O       1.352966      0.354884     -1.700208
  C       1.055071     -0.089849     -2.896098
  H       0.264910      0.523758     -3.441622
  H       1.934084     -0.115582     -3.607498
  H       0.642144     -1.151377     -2.915991
23
Coordinates from ORCA-job optts+numfreq_TSOpt_IRC_B E -30.574700682720
  C       0.572856     -1.166436      1.031244
  C       0.635355      0.015764      1.990592
  C      -1.006993      1.279804      0.595785
  H      -0.725469      0.126708     -1.192358
  C       0.401028      1.288251      1.185723
  H      -1.126571      2.150769     -0.056500
  H      -1.744999      1.343960      1.399620
  C      -0.827579     -1.278354      0.433795
  H      -0.135090     -0.087099      2.760277
  H       1.611324      0.052936      2.477850
  C      -1.232355      0.026142     -0.233122
  H      -1.541809     -1.543491      1.218011
  H      -0.835197     -2.071918     -0.321255
  H       1.120944      1.322435      0.364344
  H       0.525448      2.178687      1.805868
  H       1.286403     -0.995108      0.219908
  H       0.824788     -2.102122      1.535802
  Br     -3.141836     -0.084000     -0.657831
  O       1.362256      0.356961     -1.709293
  C       1.060042     -0.089971     -2.903556
  H       0.267458      0.523367     -3.446357
  H       1.934163     -0.118641     -3.618279
  H       0.644960     -1.150913     -2.918484
23
Coordinates from ORCA-job optts+numfreq_TSOpt_IRC_B E -30.575092390220
  C       0.572023     -1.165644      1.032548
  C       0.636072      0.015810      1.991358
  C      -1.010106      1.278823      0.601637
  H      -0.714185      0.127739     -1.185930
  C       0.400089      1.287613      1.187515
  H      -1.135449      2.151729     -0.048278
  H      -1.747911      1.336643      1.406689
  C      -0.830607     -1.277970      0.439250
  H      -0.131317     -0.087207      2.762380
  H       1.612566      0.053242      2.474804
  C      -1.232122      0.026471     -0.232040
  H      -1.545270     -1.537349      1.225568
  H      -0.843670     -2.074269     -0.313918
  H       1.115785      1.322621      0.363083
  H       0.525406      2.178825      1.806119
  H       1.281387     -0.994802      0.218029
  H       0.825193     -2.101954      1.534938
  Br     -3.136205     -0.082122     -0.672360
  O       1.371269      0.358977     -1.717752
  C       1.062643     -0.090168     -2.909663
  H       0.269998      0.522916     -3.451338
  H       1.935771     -0.121498     -3.629502
  H       0.647770     -1.150695     -2.921354
