23
Coordinates from ORCA-job opt+numfreq E -30.577954235640
  C       1.879285     -1.369489      0.028387
  C       2.760049     -0.125790     -0.040111
  C       1.178105      0.907901     -1.677998
  H      -0.137065     -0.494011     -2.647989
  C       1.911761      1.102376     -0.355221
  H       1.895599      0.758933     -2.492797
  H       0.566457      1.784355     -1.912777
  C       1.144968     -1.565326     -1.293205
  H       3.287386      0.013591      0.905750
  H       3.498322     -0.260121     -0.835367
  C       0.329211     -0.347169     -1.670987
  H       0.512496     -2.457977     -1.256702
  H       1.861863     -1.684145     -2.117725
  H       2.544306      1.989501     -0.422403
  H       1.185022      1.263389      0.446798
  H       2.488547     -2.251808      0.234492
  H       1.152099     -1.262394      0.839429
  Br     -1.173340     -0.133104     -0.440448
  C       3.054057     -1.601829     -4.992676
  O       2.598306     -0.880125     -3.994502
  H       4.148488     -1.887919     -4.898549
  H       2.514810     -2.591924     -5.136009
  H       2.980952     -1.093526     -6.004188
23
Coordinates from ORCA-job opt+numfreq E -30.577954483070
  C       1.879214     -1.369553      0.028326
  C       2.759991     -0.125851     -0.040190
  C       1.178129      0.907676     -1.678252
  H      -0.137560     -0.494158     -2.647749
  C       1.911793      1.102329     -0.355512
  H       1.895648      0.758550     -2.493025
  H       0.566543      1.784128     -1.913181
  C       1.144913     -1.565393     -1.293286
  H       3.287257      0.013621      0.905697
  H       3.498313     -0.260273     -0.835402
  C       0.329098     -0.347277     -1.670920
  H       0.512485     -2.458070     -1.256837
  H       1.861827     -1.684074     -2.117805
  H       2.544428      1.989381     -0.422889
  H       1.185088      1.263605      0.446504
  H       2.488496     -2.251855      0.234448
  H       1.152045     -1.262462      0.839396
  Br     -1.172859     -0.132961     -0.439660
  C       3.054155     -1.601541     -4.992459
  O       2.598306     -0.879971     -3.994298
  H       4.148290     -1.888164     -4.898134
  H       2.514858     -2.591293     -5.135716
  H       2.981224     -1.093008     -6.003858
