23
Coordinates from ORCA-job optts+numfreq_reactant E -30.577954556720
  C       1.879181     -1.369589      0.028323
  C       2.759962     -0.125885     -0.040245
  C       1.178107      0.907538     -1.678386
  H      -0.137898     -0.494261     -2.647555
  C       1.911828      1.102313     -0.355693
  H       1.895632      0.758274     -2.493132
  H       0.566578      1.784001     -1.913436
  C       1.144841     -1.565451     -1.293270
  H       3.287203      0.013651      0.905644
  H       3.498297     -0.260374     -0.835438
  C       0.328982     -0.347346     -1.670839
  H       0.512453     -2.458157     -1.256840
  H       1.861762     -1.684047     -2.117799
  H       2.544539      1.989302     -0.423229
  H       1.185188      1.263786      0.446343
  H       2.488489     -2.251875      0.234445
  H       1.152060     -1.262500      0.839435
  Br     -1.172691     -0.132847     -0.439246
  C       3.054244     -1.601373     -4.992383
  O       2.598296     -0.879885     -3.994177
  H       4.148254     -1.888325     -4.897875
  H       2.514815     -2.590965     -5.135780
  H       2.981560     -1.092596     -6.003670
23
Coordinates from ORCA-job optts+numfreq_reactant E -30.577954604380
  C       1.879162     -1.369606      0.028336
  C       2.759947     -0.125905     -0.040289
  C       1.178080      0.907435     -1.678474
  H      -0.138146     -0.494348     -2.647398
  C       1.911856      1.102305     -0.355824
  H       1.895603      0.758047     -2.493199
  H       0.566598      1.783906     -1.913619
  C       1.144778     -1.565496     -1.293229
  H       3.287176      0.013681      0.905598
  H       3.498284     -0.260447     -0.835472
  C       0.328888     -0.347400     -1.670764
  H       0.512420     -2.458223     -1.256797
  H       1.861696     -1.684041     -2.117772
  H       2.544625      1.989244     -0.423486
  H       1.185275      1.263925      0.446234
  H       2.488490     -2.251879      0.234456
  H       1.152084     -1.262510      0.839486
  Br     -1.172609     -0.132766     -0.438970
  C       3.054317     -1.601255     -4.992356
  O       2.598286     -0.879838     -3.994105
  H       4.148233     -1.888464     -4.897667
  H       2.514737     -2.590715     -5.135956
  H       2.981902     -1.092261     -6.003535
