23
Coordinates from ORCA-job optts+numfreq_TSOpt_IRC_F E -30.560100241560
  C       0.136889     -0.812403      1.803979
  C       0.819941      0.542228      1.954115
  C      -0.310978      1.382968     -0.121579
  H      -1.200579     -0.219316     -1.376272
  C      -0.063029      1.635178      1.362797
  H       0.623726      1.485043     -0.680138
  H      -1.019926      2.112722     -0.524746
  C      -0.099771     -1.131065      0.330259
  H       1.008224      0.747532      3.009924
  H       1.775827      0.525202      1.425186
  C      -0.807483     -0.011846     -0.390714
  H      -0.666735     -2.061456      0.220700
  H       0.862945     -1.263006     -0.172085
  H       0.408410      2.612788      1.481452
  H      -1.018833      1.654201      1.892349
  H       0.751510     -1.601757      2.242024
  H      -0.819798     -0.797156      2.331669
  Br     -2.858951     -0.028803      0.551996
  C       0.493474     -0.960187     -3.071839
  O       0.785157     -0.120764     -2.082551
  H       0.625617     -2.043143     -2.799123
  H      -0.569888     -0.874613     -3.434221
  H       1.126210     -0.797827     -3.980177
23
Coordinates from ORCA-job optts+numfreq_TSOpt_IRC_F E -30.563115277280
  C       0.136811     -0.812169      1.806098
  C       0.820278      0.542454      1.954993
  C      -0.317951      1.379096     -0.117333
  H      -1.196353     -0.217376     -1.368852
  C      -0.063287      1.635899      1.365121
  H       0.617054      1.479150     -0.678303
  H      -1.019698      2.113544     -0.524385
  C      -0.107202     -1.127071      0.332903
  H       1.008625      0.747592      3.010357
  H       1.775644      0.525148      1.425132
  C      -0.851227     -0.010721     -0.360659
  H      -0.666078     -2.061719      0.221498
  H       0.855551     -1.257938     -0.173017
  H       0.409306      2.613579      1.481513
  H      -1.018533      1.655104      1.893673
  H       0.752453     -1.602287      2.242205
  H      -0.819396     -0.797531      2.332993
  Br     -2.818160     -0.027841      0.533206
  C       0.497616     -0.960819     -3.077604
  O       0.804889     -0.120654     -2.104530
  H       0.625282     -2.045365     -2.799913
  H      -0.571035     -0.875154     -3.436541
  H       1.127372     -0.800399     -3.985549
23
Coordinates from ORCA-job optts+numfreq_TSOpt_IRC_F E -30.566405584580
  C       0.136622     -0.813120      1.808533
  C       0.819978      0.542583      1.955578
  C      -0.325390      1.378981     -0.111519
  H      -1.183877     -0.214901     -1.361331
  C      -0.063926      1.637639      1.367161
  H       0.608121      1.466000     -0.678098
  H      -1.020501      2.116538     -0.523124
  C      -0.114600     -1.125633      0.338139
  H       1.009358      0.747743      3.011070
  H       1.775315      0.525140      1.425066
  C      -0.891906     -0.009776     -0.336019
  H      -0.666064     -2.064363      0.223615
  H       0.844810     -1.246919     -0.178426
  H       0.409882      2.613794      1.481599
  H      -1.018721      1.656766      1.897302
  H       0.753117     -1.602368      2.242284
  H      -0.819292     -0.797903      2.336649
  Br     -2.780422     -0.026545      0.517881
  C       0.504565     -0.957505     -3.080505
  O       0.823272     -0.118809     -2.120936
  H       0.625161     -2.048908     -2.802143
  H      -0.572362     -0.875706     -3.439040
  H       1.128822     -0.808207     -4.000729
23
Coordinates from ORCA-job optts+numfreq_TSOpt_IRC_F E -30.569234074380
  C       0.136349     -0.813673      1.811078
  C       0.819111      0.542861      1.956965
  C      -0.334535      1.375999     -0.105145
  H      -1.168481     -0.211993     -1.352946
  C      -0.064611      1.639103      1.369781
  H       0.596550      1.448327     -0.678118
  H      -1.021967      2.121284     -0.521042
  C      -0.124017     -1.122031      0.342924
  H       1.010217      0.747826      3.011271
  H       1.774556      0.525109      1.424844
  C      -0.927556     -0.008532     -0.311425
  H      -0.665901     -2.067969      0.226871
  H       0.830531     -1.231943     -0.185853
  H       0.410785      2.614680      1.482105
  H      -1.019052      1.659337      1.902815
  H       0.754262     -1.602878      2.242926
  H      -0.819136     -0.798531      2.342311
  Br     -2.745497     -0.025106      0.504057
  C       0.512214     -0.956257     -3.087436
  O       0.845315     -0.116926     -2.140489
  H       0.625620     -2.050108     -2.805252
  H      -0.570965     -0.875342     -3.440559
  H       1.128169     -0.818719     -4.016675
23
Coordinates from ORCA-job optts+numfreq_TSOpt_IRC_F E -30.571316580560
  C       0.134584     -0.814023      1.816137
  C       0.818413      0.542956      1.957864
  C      -0.344856      1.375893     -0.097598
  H      -1.150232     -0.208783     -1.344519
  C      -0.067163      1.640987      1.374786
  H       0.581014      1.423245     -0.678282
  H      -1.023179      2.125665     -0.516036
  C      -0.133902     -1.120311      0.349560
  H       1.011808      0.748184      3.012853
  H       1.772599      0.525113      1.424640
  C      -0.942170     -0.007037     -0.296982
  H      -0.665463     -2.070698      0.232280
  H       0.811454     -1.210303     -0.196401
  H       0.411823      2.615373      1.482624
  H      -1.018104      1.663846      1.911379
  H       0.755667     -1.603132      2.243324
  H      -0.817336     -0.799827      2.351129
  Br     -2.734718     -0.023865      0.499534
  C       0.520813     -0.957488     -3.099159
  O       0.874072     -0.112580     -2.163022
  H       0.627441     -2.051437     -2.809495
  H      -0.567376     -0.872930     -3.441592
  H       1.126768     -0.834326     -4.040016
23
Coordinates from ORCA-job optts+numfreq_TSOpt_IRC_F E -30.573005792750
  C       0.134543     -0.813497      1.821247
  C       0.817598      0.543768      1.961533
  C      -0.351659      1.373145     -0.089636
  H      -1.134980     -0.206379     -1.340311
  C      -0.067732      1.642422      1.380883
  H       0.570141      1.400703     -0.679287
  H      -1.025970      2.129392     -0.509517
  C      -0.140716     -1.115867      0.355227
  H       1.014201      0.748588      3.014453
  H       1.769353      0.525158      1.424303
  C      -0.955561     -0.006006     -0.285599
  H      -0.666245     -2.071809      0.238596
  H       0.797160     -1.189637     -0.206656
  H       0.413395      2.616571      1.483900
  H      -1.017523      1.669653      1.922552
  H       0.757991     -1.603578      2.244389
  H      -0.815817     -0.801604      2.362592
  Br     -2.745222     -0.023613      0.499807
  C       0.531847     -0.959207     -3.114018
  O       0.903869     -0.110791     -2.189945
  H       0.630637     -2.050848     -2.814952
  H      -0.560156     -0.868026     -3.441393
  H       1.122805     -0.854017     -4.065162
23
Coordinates from ORCA-job optts+numfreq_TSOpt_IRC_F E -30.574356923580
  C       0.133866     -0.813515      1.825871
  C       0.816592      0.544378      1.965677
  C      -0.359390      1.370957     -0.081932
  H      -1.128267     -0.204113     -1.334014
  C      -0.069280      1.644137      1.385468
  H       0.558117      1.381653     -0.676744
  H      -1.026636      2.130884     -0.501326
  C      -0.148360     -1.111345      0.361067
  H       1.018270      0.749556      3.019196
  H       1.766973      0.525506      1.424065
  C      -0.967829     -0.004595     -0.276144
  H      -0.665495     -2.070471      0.245052
  H       0.782816     -1.170654     -0.212402
  H       0.415263      2.616597      1.485542
  H      -1.014849      1.675688      1.933057
  H       0.760458     -1.602570      2.244796
  H      -0.812158     -0.803664      2.373080
  Br     -2.757541     -0.024484      0.496202
  C       0.541600     -0.961662     -3.127970
  O       0.935686     -0.108007     -2.216785
  H       0.635042     -2.052595     -2.821492
  H      -0.553150     -0.861884     -3.442546
  H       1.120230     -0.875278     -4.094712
23
Coordinates from ORCA-job optts+numfreq_TSOpt_IRC_F E -30.575393539820
  C       0.133944     -0.811456      1.832435
  C       0.817416      0.545375      1.970337
  C      -0.365279      1.368973     -0.074008
  H      -1.127950     -0.202537     -1.329615
  C      -0.069567      1.645097      1.393716
  H       0.550130      1.366824     -0.674039
  H      -1.030257      2.134626     -0.494006
  C      -0.154206     -1.106906      0.366670
  H       1.022234      0.750202      3.021940
  H       1.764737      0.526217      1.425310
  C      -0.981298     -0.004084     -0.268214
  H      -0.666646     -2.070497      0.251154
  H       0.772760     -1.154461     -0.215964
  H       0.417969      2.616759      1.486368
  H      -1.013764      1.681297      1.944165
  H       0.763942     -1.601810      2.244196
  H      -0.810237     -0.805434      2.384203
  Br     -2.772918     -0.025928      0.492459
  C       0.553424     -0.965573     -3.145926
  O       0.966979     -0.107716     -2.245709
  H       0.639113     -2.052049     -2.829182
  H      -0.543891     -0.855386     -3.443429
  H       1.115323     -0.897013     -4.119855
23
Coordinates from ORCA-job optts+numfreq_TSOpt_IRC_F E -30.575668845430
  C       0.133485     -0.811449      1.833378
  C       0.817347      0.545661      1.971326
  C      -0.366982      1.367305     -0.071911
  H      -1.129118     -0.201935     -1.327195
  C      -0.070439      1.645692      1.394706
  H       0.545925      1.363300     -0.671752
  H      -1.030886      2.135569     -0.491130
  C      -0.156244     -1.104656      0.367741
  H       1.023902      0.750599      3.023928
  H       1.764026      0.526505      1.425979
  C      -0.984192     -0.003418     -0.266030
  H      -0.666606     -2.070091      0.253297
  H       0.768490     -1.150070     -0.215428
  H       0.418591      2.616477      1.486960
  H      -1.012468      1.683023      1.947615
  H       0.764870     -1.601313      2.244074
  H      -0.808814     -0.805853      2.387617
  Br     -2.777249     -0.026464      0.491233
  C       0.556994     -0.965960     -3.150507
  O       0.977745     -0.107289     -2.254598
  H       0.640501     -2.053823     -2.831738
  H      -0.541824     -0.853208     -3.444555
  H       1.114904     -0.904084     -4.130002
23
Coordinates from ORCA-job optts+numfreq_TSOpt_IRC_F E -30.575779828760
  C       0.133542     -0.811099      1.833846
  C       0.817326      0.545929      1.972149
  C      -0.368985      1.368063     -0.071113
  H      -1.129595     -0.201749     -1.326587
  C      -0.070244      1.645443      1.395450
  H       0.545394      1.362061     -0.671496
  H      -1.030764      2.135386     -0.489887
  C      -0.157725     -1.104863      0.368624
  H       1.024348      0.750662      3.024216
  H       1.763874      0.526613      1.426149
  C      -0.985483     -0.003379     -0.265248
  H      -0.666472     -2.069529      0.254049
  H       0.767722     -1.148552     -0.215654
  H       0.418879      2.616552      1.487079
  H      -1.012355      1.683630      1.948924
  H       0.765249     -1.601218      2.243964
  H      -0.808536     -0.806008      2.388881
  Br     -2.778803     -0.026627      0.490918
  C       0.558366     -0.966326     -3.152374
  O       0.981418     -0.107524     -2.258153
  H       0.640961     -2.053939     -2.832791
  H      -0.540677     -0.852409     -3.444837
  H       1.114519     -0.906598     -4.133103
23
Coordinates from ORCA-job optts+numfreq_TSOpt_IRC_F E -30.575975371880
  C       0.133536     -0.810599      1.834976
  C       0.817290      0.546310      1.973538
  C      -0.371661      1.368431     -0.069310
  H      -1.130662     -0.201362     -1.325274
  C      -0.070226      1.645404      1.396960
  H       0.543592      1.359567     -0.670585
  H      -1.031192      2.135722     -0.487549
  C      -0.159935     -1.104332      0.370133
  H       1.025326      0.750843      3.025048
  H       1.763576      0.526851      1.426539
  C      -0.988241     -0.003171     -0.263555
  H      -0.666553     -2.068911      0.255632
  H       0.765620     -1.145407     -0.215819
  H       0.419442      2.616578      1.487355
  H      -1.011949      1.684889      1.951705
  H       0.766022     -1.600956      2.243716
  H      -0.807872     -0.806300      2.391580
  Br     -2.782191     -0.026982      0.490327
  C       0.561250     -0.967199     -3.156517
  O       0.989389     -0.107842     -2.265498
  H       0.641942     -2.054340     -2.835051
  H      -0.538307     -0.850696     -3.445510
  H       1.113764     -0.911978     -4.139833
23
Coordinates from ORCA-job optts+numfreq_TSOpt_IRC_F E -30.576167940120
  C       0.133560     -0.810311      1.836248
  C       0.817112      0.546577      1.974921
  C      -0.373142      1.367796     -0.067279
  H      -1.131923     -0.200947     -1.323816
  C      -0.070424      1.645833      1.398443
  H       0.541032      1.357096     -0.669260
  H      -1.032299      2.136719     -0.485272
  C      -0.161473     -1.102924      0.371455
  H       1.026386      0.751061      3.026038
  H       1.763369      0.527118      1.426934
  C      -0.991221     -0.002847     -0.261732
  H      -0.667004     -2.068748      0.257330
  H       0.762945     -1.142160     -0.215673
  H       0.419961      2.616455      1.487676
  H      -1.011426      1.686202      1.954755
  H       0.766785     -1.600586      2.243420
  H      -0.807147     -0.806561      2.394542
  Br     -2.785901     -0.027362      0.489842
  C       0.564360     -0.968250     -3.161184
  O       0.998177     -0.108050     -2.273234
  H       0.642998     -2.054954     -2.837552
  H      -0.535798     -0.848815     -3.446350
  H       1.113034     -0.917821     -4.147245
23
Coordinates from ORCA-job optts+numfreq_TSOpt_IRC_F E -30.576340907570
  C       0.133322     -0.809808      1.837556
  C       0.817393      0.546901      1.975886
  C      -0.375493      1.367940     -0.065507
  H      -1.133300     -0.200537     -1.322410
  C      -0.070704      1.645898      1.400191
  H       0.538972      1.354955     -0.668211
  H      -1.033096      2.137269     -0.482833
  C      -0.163468     -1.102230      0.372911
  H       1.027349      0.751291      3.027091
  H       1.762866      0.527398      1.427541
  C      -0.994033     -0.002541     -0.259950
  H      -0.667327     -2.068200      0.259002
  H       0.760716     -1.139232     -0.215630
  H       0.420505      2.616512      1.487997
  H      -1.010859      1.687456      1.957577
  H       0.767579     -1.600331      2.243163
  H      -0.806333     -0.806821      2.397276
  Br     -2.789317     -0.027685      0.489590
  C       0.567473     -0.969201     -3.165596
  O       1.006575     -0.108617     -2.280986
  H       0.643993     -2.055510     -2.840102
  H      -0.533223     -0.846961     -3.447251
  H       1.112367     -0.923426     -4.154299
23
Coordinates from ORCA-job optts+numfreq_TSOpt_IRC_F E -30.576504216250
  C       0.133244     -0.809451      1.838839
  C       0.817218      0.547173      1.977221
  C      -0.377066      1.367522     -0.063525
  H      -1.134856     -0.200122     -1.320933
  C      -0.070995      1.646248      1.401662
  H       0.536460      1.353004     -0.666919
  H      -1.034349      2.138215     -0.480453
  C      -0.165030     -1.100926      0.374166
  H       1.028324      0.751511      3.028085
  H       1.762707      0.527691      1.427969
  C      -0.996844     -0.002215     -0.258070
  H      -0.667937     -2.067962      0.260724
  H       0.758162     -1.136409     -0.215337
  H       0.420983      2.616481      1.488370
  H      -1.010307      1.688690      1.960575
  H       0.768336     -1.600013      2.242900
  H      -0.805557     -0.807024      2.400156
  Br     -2.792812     -0.027993      0.489536
  C       0.570619     -0.970385     -3.170432
  O       1.015434     -0.109042     -2.288721
  H       0.645007     -2.056236     -2.842824
  H      -0.530563     -0.845021     -3.448308
  H       1.111781     -0.929215     -4.161672
23
Coordinates from ORCA-job optts+numfreq_TSOpt_IRC_F E -30.576650831160
  C       0.133108     -0.809018      1.840097
  C       0.817499      0.547512      1.978179
  C      -0.379308      1.367655     -0.061765
  H      -1.136507     -0.199695     -1.319428
  C      -0.071202      1.646421      1.403405
  H       0.534340      1.351368     -0.665857
  H      -1.035423      2.138833     -0.477963
  C      -0.166916     -1.100242      0.375669
  H       1.029195      0.751739      3.029083
  H       1.762220      0.527995      1.428609
  C      -0.999595     -0.001841     -0.256344
  H      -0.668482     -2.067418      0.262417
  H       0.755987     -1.133886     -0.215147
  H       0.421424      2.616521      1.488749
  H      -1.009791      1.689871      1.963396
  H       0.769052     -1.599718      2.242647
  H      -0.804797     -0.807227      2.402875
  Br     -2.796016     -0.028238      0.489744
  C       0.573855     -0.971385     -3.174946
  O       1.023904     -0.109930     -2.296608
  H       0.645962     -2.056905     -2.845627
  H      -0.527822     -0.843096     -3.449448
  H       1.111272     -0.934793     -4.168731
