23
Coordinates from ORCA-job optts+numfreq_MEP E -30.577954905910
  C       0.045176     -0.839761      1.755893
  C       0.925928      0.403957      1.687249
  C      -0.656106      1.437256      0.049125
  H      -1.972407      0.035477     -0.919655
  C       0.077801      1.632154      1.371719
  H       0.061278      1.287616     -0.765652
  H      -1.267552      2.313730     -0.186066
  C      -0.689255     -1.035649      0.434366
  H       1.453138      0.543553      2.633149
  H       1.664265      0.269433      0.892067
  C      -1.505264      0.182407      0.056931
  H      -1.321531     -1.928431      0.470788
  H       0.027636     -1.154100     -0.390228
  H       0.710599      2.519073      1.304017
  H      -0.648687      1.793813      2.173857
  H       0.654548     -1.722018      1.961981
  H      -0.681849     -0.732711      2.567097
  Br     -3.006698      0.397009      1.288821
  C       1.220548     -1.071330     -3.264831
  O       0.765741     -0.349898     -2.265946
  H       2.314339     -1.359137     -3.170607
  H       0.680412     -2.060465     -3.408328
  H       1.147941     -0.561980     -4.275745
23
Coordinates from ORCA-job optts+numfreq_MEP E -30.577904753510
  C       0.054673     -0.835477      1.769570
  C       0.922470      0.418141      1.715473
  C      -0.628126      1.426809      0.032446
  H      -1.892143      0.001487     -0.968813
  C       0.067337      1.634446      1.373440
  H       0.109392      1.289528     -0.765734
  H      -1.249096      2.292390     -0.218995
  C      -0.641685     -1.048669      0.430572
  H       1.423734      0.568803      2.673760
  H       1.681708      0.288953      0.939794
  C      -1.457953      0.159154      0.021318
  H      -1.269165     -1.945527      0.457789
  H       0.095967     -1.169190     -0.374464
  H       0.689636      2.530004      1.321091
  H      -0.683314      1.787582      2.154253
  H       0.667857     -1.709538      1.999034
  H      -0.695550     -0.730839      2.559135
  Br     -2.994806      0.359895      1.209270
  C       1.155313     -1.054139     -3.253873
  O       0.748505     -0.306020     -2.254464
  H       2.208896     -1.457804     -3.132530
  H       0.518273     -1.977943     -3.433066
  H       1.168079     -0.522045     -4.255008
23
Coordinates from ORCA-job optts+numfreq_MEP E -30.577751327460
  C       0.063899     -0.831254      1.782273
  C       0.918176      0.432222      1.741669
  C      -0.601807      1.416927      0.017039
  H      -1.813744     -0.031051     -1.013925
  C       0.056392      1.636540      1.374500
  H       0.154608      1.293060     -0.764795
  H      -1.232199      2.271224     -0.250127
  C      -0.595337     -1.061185      0.427646
  H       1.394266      0.593341      2.711058
  H       1.696956      0.308955      0.985012
  C      -1.411370      0.136508     -0.011881
  H      -1.217925     -1.962009      0.446249
  H       0.162210     -1.184104     -0.357437
  H       0.667573      2.540619      1.336378
  H      -0.716575      1.780609      2.134536
  H       0.680486     -1.696926      2.034121
  H      -0.707967     -0.729659      2.550534
  Br     -2.980602      0.322300      1.133664
  C       1.092815     -1.037549     -3.243714
  O       0.737268     -0.265567     -2.243594
  H       2.091030     -1.556371     -3.096012
  H       0.364804     -1.883109     -3.460692
  H       1.197043     -0.493521     -4.232502
23
Coordinates from ORCA-job optts+numfreq_MEP E -30.577488393300
  C       0.073063     -0.827061      1.794064
  C       0.913032      0.446402      1.766439
  C      -0.576476      1.407399      0.002419
  H      -1.736533     -0.062386     -1.055755
  C       0.044858      1.638457      1.374888
  H       0.198115      1.297972     -0.762950
  H      -1.216211      2.249851     -0.280466
  C      -0.549259     -1.073378      0.425166
  H       1.364069      0.617578      2.746017
  H       1.710550      0.329751      1.028790
  C      -1.364721      0.114171     -0.043358
  H      -1.166720     -1.978164      0.435523
  H       0.227668     -1.198924     -0.339427
  H       0.644180      2.551042      1.350246
  H      -0.749159      1.772798      2.114307
  H       0.692677     -1.684039      2.067799
  H      -0.719461     -0.729180      2.540998
  Br     -2.964059      0.283672      1.060861
  C       1.031884     -1.021362     -3.233760
  O       0.731662     -0.228988     -2.232276
  H       1.958224     -1.653433     -3.061476
  H       0.220219     -1.774896     -3.491020
  H       1.232397     -0.477282     -4.207030
23
Coordinates from ORCA-job optts+numfreq_MEP E -30.577096515870
  C       0.082222     -0.822896      1.805205
  C       0.907010      0.460735      1.790393
  C      -0.551219      1.397966     -0.011841
  H      -1.658244     -0.093058     -1.095773
  C       0.032680      1.640081      1.374622
  H       0.241349      1.303890     -0.760054
  H      -1.199908      2.228104     -0.310886
  C      -0.502566     -1.085383      0.423030
  H       1.332534      0.641716      2.779505
  H       1.722770      0.351388      1.072041
  C      -1.316933      0.091856     -0.074041
  H      -1.114599     -1.994173      0.425144
  H       0.293630     -1.213631     -0.320062
  H       0.619207      2.561287      1.363111
  H      -0.781770      1.763862      2.093009
  H       0.704409     -1.670835      2.100742
  H      -0.730492     -0.729342      2.530247
  Br     -2.944950      0.243745      0.988928
  C       0.970752     -1.005173     -3.223452
  O       0.729363     -0.196603     -2.219919
  H       1.808511     -1.745232     -3.029037
  H       0.085979     -1.653887     -3.523038
  H       1.270266     -0.474418     -4.177875
23
Coordinates from ORCA-job optts+numfreq_MEP E -30.576547693160
  C       0.091403     -0.818772      1.815815
  C       0.899869      0.475342      1.814015
  C      -0.525175      1.388466     -0.026325
  H      -1.577429     -0.123837     -1.135015
  C       0.019670      1.641336      1.373526
  H       0.285690      1.311437     -0.756141
  H      -1.182756      2.205398     -0.342353
  C      -0.454052     -1.097490      0.420994
  H       1.298801      0.665958      2.812253
  H       1.733904      0.374060      1.115861
  C      -1.266619      0.069104     -0.104953
  H      -1.060329     -2.010349      0.414477
  H       0.362054     -1.228534     -0.298697
  H       0.592173      2.571421      1.375254
  H      -0.815126      1.753493      2.069854
  H       0.715602     -1.657150      2.133752
  H      -0.741632     -0.730151      2.517679
  Br     -2.922585      0.201906      0.916223
  C       0.907859     -0.988568     -3.212153
  O       0.730294     -0.168438     -2.205611
  H       1.639132     -1.829509     -2.998981
  H      -0.038103     -1.518942     -3.555173
  H       1.307354     -0.486180     -4.144302
23
Coordinates from ORCA-job optts+numfreq_MEP E -30.575756312590
  C       0.100871     -0.814685      1.825807
  C       0.891189      0.490565      1.838146
  C      -0.496434      1.378612     -0.042088
  H      -1.491533     -0.155765     -1.174943
  C       0.005573      1.642068      1.371110
  H       0.334064      1.321691     -0.750871
  H      -1.163212      2.180666     -0.376879
  C      -0.401275     -1.110399      0.418498
  H       1.260454      0.690884      2.845768
  H       1.745048      0.398824      1.162923
  C      -1.210752      0.045091     -0.137864
  H      -1.001736     -2.027235      0.402496
  H       0.436403     -1.245443     -0.274282
  H       0.562183      2.581564      1.386982
  H      -0.850526      1.740757      2.042944
  H       0.725956     -1.642766      2.168077
  H      -0.753710     -0.731580      2.501685
  Br     -2.895419      0.157009      0.839651
  C       0.839929     -0.970641     -3.198538
  O       0.732577     -0.144239     -2.188248
  H       1.444705     -1.902877     -2.969804
  H      -0.153146     -1.368412     -3.585898
  H       1.338791     -0.513689     -4.104671
23
Coordinates from ORCA-job optts+numfreq_MEP E -30.574434564020
  C       0.110621     -0.810814      1.834257
  C       0.880738      0.506275      1.862758
  C      -0.462597      1.368500     -0.060956
  H      -1.402096     -0.189703     -1.216876
  C      -0.009585      1.641714      1.366136
  H       0.390054      1.339023     -0.744244
  H      -1.139957      2.152649     -0.416579
  C      -0.341791     -1.125048      0.414332
  H       1.215706      0.716462      2.880237
  H       1.756414      0.425813      1.214454
  C      -1.145412      0.019223     -0.175505
  H      -0.937803     -2.044774      0.387675
  H       0.520759     -1.268509     -0.244630
  H       0.528458      2.591391      1.398095
  H      -0.888715      1.724094      2.009476
  H       0.734703     -1.627549      2.204160
  H      -0.767687     -0.733573      2.479371
  Br     -2.861472      0.108641      0.758075
  C       0.763936     -0.950325     -3.179509
  O       0.733151     -0.124213     -2.164897
  H       1.223311     -1.959558     -2.939392
  H      -0.258330     -1.203376     -3.610791
  H       1.357593     -0.556345     -4.055647
23
Coordinates from ORCA-job optts+numfreq_MEP E -30.571477469500
  C       0.120077     -0.807638      1.836377
  C       0.870293      0.520241      1.883568
  C      -0.421763      1.360236     -0.086406
  H      -1.336069     -0.223322     -1.259616
  C      -0.023148      1.638854      1.355741
  H       0.456128      1.377612     -0.737751
  H      -1.115468      2.121042     -0.459828
  C      -0.276662     -1.141986      0.403901
  H       1.168000      0.739120      2.910868
  H       1.768576      0.451978      1.265384
  C      -1.064518     -0.006718     -0.225349
  H      -0.876903     -2.058374      0.367220
  H       0.616136     -1.310162     -0.206688
  H       0.494010      2.598946      1.406465
  H      -0.925760      1.702161      1.967351
  H       0.739512     -1.613224      2.236593
  H      -0.782929     -0.735426      2.446379
  Br     -2.829514      0.062791      0.687012
  C       0.683968     -0.928942     -3.148738
  O       0.721899     -0.111304     -2.127328
  H       1.003024     -1.989714     -2.904410
  H      -0.344815     -1.046409     -3.620006
  H       1.355926     -0.599761     -3.990742
23
Coordinates from ORCA-job optts+numfreq_MEP E -30.563405248900
  C       0.126005     -0.805575      1.828454
  C       0.866639      0.526077      1.890374
  C      -0.384360      1.359153     -0.113656
  H      -1.345640     -0.244293     -1.289271
  C      -0.027410      1.633450      1.342746
  H       0.512571      1.439448     -0.735933
  H      -1.103290      2.094438     -0.487130
  C      -0.227033     -1.156321      0.385577
  H       1.142035      0.748720      2.923457
  H       1.777338      0.464683      1.290494
  C      -0.957551     -0.024164     -0.300880
  H      -0.850541     -2.055556      0.346968
  H       0.691422     -1.370184     -0.169906
  H       0.474947      2.600392      1.408302
  H      -0.944447      1.683599      1.933047
  H       0.738219     -1.606053      2.249371
  H      -0.792328     -0.735045      2.414453
  Br     -2.862786      0.042234      0.680351
  C       0.631344     -0.919297     -3.114901
  O       0.684516     -0.109174     -2.075161
  H       0.893424     -1.990828     -2.875129
  H      -0.384049     -0.971082     -3.609543
  H       1.340974     -0.604620     -3.922082
23
Coordinates from ORCA-job optts+numfreq_MEP E -30.557133874850
  C       0.127754     -0.803944      1.820158
  C       0.867529      0.526216      1.889113
  C      -0.363324      1.361594     -0.130542
  H      -1.387565     -0.249630     -1.292732
  C      -0.025819      1.628843      1.335177
  H       0.540238      1.484695     -0.736519
  H      -1.103548      2.079841     -0.493105
  C      -0.203399     -1.163509      0.370583
  H       1.138235      0.749097      2.923536
  H       1.780695      0.465822      1.293071
  C      -0.830645     -0.035334     -0.398066
  H      -0.851604     -2.044465      0.336727
  H       0.725328     -1.412464     -0.148647
  H       0.471023      2.598687      1.406942
  H      -0.947028      1.676074      1.919779
  H       0.735121     -1.604676      2.248289
  H      -0.794884     -0.733531      2.399889
  Br     -2.954600      0.041683      0.720634
  C       0.610066     -0.924661     -3.098510
  O       0.645523     -0.107673     -2.030018
  H       0.879924     -1.983013     -2.861163
  H      -0.388296     -0.962262     -3.597957
  H       1.329274     -0.587388     -3.876641
23
Coordinates from ORCA-job optts+numfreq_MEP E -30.560531850210
  C       0.129645     -0.803547      1.812990
  C       0.867778      0.525561      1.888021
  C      -0.352135      1.364777     -0.138326
  H      -1.415087     -0.248495     -1.278609
  C      -0.023131      1.626138      1.329245
  H       0.552351      1.511033     -0.737019
  H      -1.106072      2.070728     -0.493846
  C      -0.191258     -1.167983      0.362694
  H       1.138406      0.747959      2.921244
  H       1.782751      0.465135      1.290941
  C      -0.742098     -0.046290     -0.483840
  H      -0.856176     -2.035511      0.331557
  H       0.740062     -1.436751     -0.138450
  H       0.469902      2.596631      1.405227
  H      -0.947538      1.672911      1.915093
  H       0.732727     -1.604383      2.245359
  H      -0.796273     -0.732579      2.393528
  Br     -3.017343      0.043617      0.747584
  C       0.598758     -0.929012     -3.086149
  O       0.619617     -0.103809     -1.995816
  H       0.881946     -1.977369     -2.852063
  H      -0.388378     -0.964661     -3.590127
  H       1.321545     -0.574098     -3.849236
23
Coordinates from ORCA-job optts+numfreq_MEP E -30.572821444660
  C       0.129805     -0.801645      1.805581
  C       0.868068      0.524898      1.886136
  C      -0.342987      1.362962     -0.149707
  H      -1.435374     -0.247133     -1.265527
  C      -0.022325      1.621849      1.324090
  H       0.562528      1.535891     -0.736997
  H      -1.108808      2.061503     -0.493716
  C      -0.181878     -1.168888      0.349449
  H       1.138488      0.746923      2.919195
  H       1.784416      0.464615      1.288929
  C      -0.654516     -0.055963     -0.562461
  H      -0.860562     -2.026078      0.326614
  H       0.753255     -1.459044     -0.130242
  H       0.468371      2.594424      1.402708
  H      -0.947513      1.670010      1.911014
  H       0.730069     -1.604157      2.241394
  H      -0.797025     -0.731566      2.387441
  Br     -3.067667      0.044668      0.769640
  C       0.586108     -0.932589     -3.071390
  O       0.591188     -0.099320     -1.954999
  H       0.882305     -1.972887     -2.842836
  H      -0.389776     -0.966799     -3.582957
  H       1.313828     -0.561672     -3.821357
23
Coordinates from ORCA-job optts+numfreq_MEP E -30.615561323700
  C       0.137915     -0.798198      1.781034
  C       0.869458      0.528607      1.885773
  C      -0.283539      1.355396     -0.189693
  H      -1.428885     -0.253601     -1.203436
  C      -0.025198      1.607061      1.300223
  H       0.623730      1.623242     -0.730658
  H      -1.089759      2.009543     -0.525857
  C      -0.108108     -1.182196      0.312286
  H       1.109269      0.754007      2.926516
  H       1.799204      0.477274      1.313290
  C      -0.467381     -0.082452     -0.708656
  H      -0.827003     -2.004964      0.289238
  H       0.839697     -1.536467     -0.089256
  H       0.445841      2.590125      1.391425
  H      -0.963507      1.640003      1.861998
  H       0.726116     -1.599246      2.239587
  H      -0.804201     -0.730210      2.334177
  Br     -3.243096      0.051100      0.774666
  C       0.519813     -0.928272     -3.020040
  O       0.547574     -0.102070     -1.859102
  H       0.795296     -1.973712     -2.820003
  H      -0.444425     -0.916349     -3.542291
  H       1.271188     -0.528621     -3.721221
23
Coordinates from ORCA-job optts+numfreq_MEP E -30.631857137990
  C       0.172663     -0.796764      1.785603
  C       0.857359      0.551637      1.925820
  C      -0.182294      1.329536     -0.221050
  H      -1.363893     -0.297838     -1.102552
  C      -0.035800      1.593547      1.275821
  H       0.747254      1.644558     -0.699257
  H      -0.994577      1.945899     -0.609934
  C       0.039124     -1.205283      0.313232
  H       1.024476      0.793195      2.977213
  H       1.822722      0.526036      1.414077
  C      -0.349638     -0.122887     -0.724127
  H      -0.661395     -2.041575      0.257970
  H       1.021599     -1.550747     -0.013537
  H       0.392465      2.592334      1.386769
  H      -1.010248      1.593344      1.773129
  H       0.752098     -1.574687      2.289142
  H      -0.806101     -0.749044      2.274231
  Br     -3.540665      0.080319      0.613833
  C       0.393297     -0.904386     -3.017606
  O       0.580621     -0.155604     -1.836288
  H       0.506310     -1.985625     -2.875129
  H      -0.563712     -0.709639     -3.515166
  H       1.198336     -0.556326     -3.672195
23
Coordinates from ORCA-job optts+numfreq_MEP E -30.635217182590
  C       0.196103     -0.796489      1.802781
  C       0.847923      0.567468      1.954232
  C      -0.137660      1.310350     -0.228757
  H      -1.333500     -0.330743     -1.053925
  C      -0.043163      1.588973      1.268955
  H       0.810747      1.615978     -0.679679
  H      -0.932105      1.923403     -0.654925
  C       0.112579     -1.214446      0.330353
  H       0.975533      0.819166      3.008761
  H       1.830455      0.558442      1.475502
  C      -0.304981     -0.146973     -0.708315
  H      -0.549134     -2.079061      0.258536
  H       1.116831     -1.518993      0.023167
  H       0.362960      2.596002      1.386835
  H      -1.034255      1.572592      1.731547
  H       0.777598     -1.558170      2.327966
  H      -0.798287     -0.766954      2.259623
  Br     -3.689300      0.096616      0.484259
  C       0.325524     -0.885090     -3.034073
  O       0.600885     -0.204854     -1.832633
  H       0.316417     -1.976454     -2.927119
  H      -0.609854     -0.567134     -3.510434
  H       1.158682     -0.603628     -3.682656
23
Coordinates from ORCA-job optts+numfreq_MEP E -30.637699127900
  C       0.215050     -0.796492      1.818107
  C       0.839298      0.580550      1.976345
  C      -0.100109      1.293077     -0.234913
  H      -1.306745     -0.359598     -1.015010
  C      -0.050192      1.584411      1.261603
  H       0.859997      1.587170     -0.663841
  H      -0.881021      1.904697     -0.692002
  C       0.173995     -1.220269      0.347195
  H       0.934221      0.840531      3.032345
  H       1.833990      0.585735      1.524824
  C      -0.274855     -0.169769     -0.695809
  H      -0.454729     -2.110269      0.262724
  H       1.191111     -1.486573      0.053284
  H       0.338350      2.598164      1.384169
  H      -1.052521      1.555470      1.696786
  H       0.799726     -1.543892      2.360405
  H      -0.789496     -0.783351      2.250661
  Br     -3.804993      0.106818      0.376232
  C       0.269526     -0.866368     -3.047012
  O       0.618142     -0.253838     -1.829214
  H       0.149270     -1.953057     -2.968447
  H      -0.631677     -0.440611     -3.503501
  H       1.123664     -0.652536     -3.694932
23
Coordinates from ORCA-job optts+numfreq_MEP E -30.639844221640
  C       0.233136     -0.796402      1.832241
  C       0.829791      0.592438      1.995718
  C      -0.066862      1.275535     -0.242340
  H      -1.282744     -0.387874     -0.979440
  C      -0.055940      1.579534      1.252658
  H       0.906055      1.560249     -0.650455
  H      -0.832237      1.885781     -0.726083
  C       0.229045     -1.225318      0.363294
  H       0.894335      0.860096      3.052020
  H       1.835518      0.611120      1.569668
  C      -0.242949     -0.191344     -0.683208
  H      -0.365151     -2.136771      0.268240
  H       1.259608     -1.455187      0.081564
  H       0.315244      2.599034      1.378826
  H      -1.068962      1.538989      1.661886
  H       0.819646     -1.530110      2.390455
  H      -0.781123     -0.799591      2.241862
  Br     -3.909088      0.110680      0.276373
  C       0.218234     -0.845684     -3.056591
  O       0.632761     -0.306920     -1.826136
  H      -0.014489     -1.915576     -3.001713
  H      -0.638420     -0.317638     -3.492009
  H       1.084593     -0.705040     -3.706830
23
Coordinates from ORCA-job optts+numfreq_MEP E -30.641884050970
  C       0.249738     -0.796647      1.844993
  C       0.820093      0.603238      2.012437
  C      -0.034128      1.258238     -0.250549
  H      -1.258574     -0.415126     -0.944506
  C      -0.061343      1.573938      1.241972
  H       0.948745      1.534676     -0.638785
  H      -0.786128      1.866378     -0.758882
  C       0.282545     -1.229330      0.378756
  H       0.854612      0.878087      3.068390
  H       1.835374      0.634968      1.611385
  C      -0.213956     -0.213186     -0.671986
  H      -0.279394     -2.160452      0.273772
  H       1.322867     -1.424435      0.108503
  H       0.293695      2.598862      1.371041
  H      -1.083239      1.522707      1.626620
  H       0.837895     -1.517081      2.418447
  H      -0.772486     -0.815924      2.232701
  Br     -4.006281      0.111400      0.182642
  C       0.169648     -0.823887     -3.062620
  O       0.644938     -0.362383     -1.823367
  H      -0.172684     -1.864556     -3.026671
  H      -0.632199     -0.200694     -3.475599
  H       1.040262     -0.758793     -3.718695
23
Coordinates from ORCA-job optts+numfreq_MEP E -30.643883139130
  C       0.265639     -0.797155      1.856386
  C       0.809953      0.613163      2.027085
  C      -0.001827      1.240589     -0.259611
  H      -1.235085     -0.442189     -0.908853
  C      -0.066279      1.567603      1.229656
  H       0.989966      1.509496     -0.628198
  H      -0.740520      1.846360     -0.791367
  C       0.335188     -1.232709      0.393468
  H       0.814567      0.894716      3.081998
  H       1.833864      0.657938      1.651059
  C      -0.185980     -0.235311     -0.661352
  H      -0.194239     -2.182207      0.279153
  H       1.383510     -1.393315      0.134299
  H       0.273061      2.597681      1.360975
  H      -1.095909      1.506169      1.590533
  H       0.854649     -1.504538      2.445032
  H      -0.763713     -0.832404      2.221992
  Br     -4.102201      0.109998      0.093197
  C       0.123144     -0.800736     -3.065322
  O       0.653323     -0.420013     -1.821171
  H      -0.326515     -1.799939     -3.043240
  H      -0.613755     -0.089286     -3.455456
  H       0.989158     -0.813912     -3.730264
23
Coordinates from ORCA-job optts+numfreq_MEP E -30.645864118560
  C       0.281221     -0.797918      1.866469
  C       0.799174      0.622368      2.039960
  C       0.030101      1.222283     -0.269608
  H      -1.212986     -0.468538     -0.871913
  C      -0.070654      1.560551      1.215606
  H       1.030605      1.483938     -0.618386
  H      -0.694452      1.825332     -0.824300
  C       0.386861     -1.235716      0.407456
  H       0.773615      0.910157      3.093027
  H       1.831091      0.680457      1.689320
  C      -0.158670     -0.257767     -0.650947
  H      -0.109254     -2.202211      0.284715
  H       1.442125     -1.361651      0.158965
  H       0.253087      2.595489      1.348571
  H      -1.107223      1.489046      1.553218
  H       0.870191     -1.492297      2.470365
  H      -0.754778     -0.849176      2.209579
  Br     -4.196079      0.106265      0.006469
  C       0.078376     -0.776229     -3.064714
  O       0.657040     -0.479298     -1.819532
  H      -0.475033     -1.722009     -3.051485
  H      -0.584282      0.015969     -3.431385
  H       0.929924     -0.869046     -3.741450
23
Coordinates from ORCA-job optts+numfreq_MEP E -30.647843374140
  C       0.296853     -0.799049      1.875133
  C       0.787861      0.630815      2.051250
  C       0.061637      1.203439     -0.280187
  H      -1.191553     -0.494808     -0.832144
  C      -0.074394      1.552715      1.200143
  H       1.070430      1.458282     -0.609349
  H      -0.648518      1.803520     -0.856710
  C       0.438393     -1.238469      0.420613
  H       0.731739      0.924230      3.101663
  H       1.827169      0.702722      1.726410
  C      -0.131701     -0.280473     -0.640518
  H      -0.024082     -2.220530      0.290435
  H       1.499465     -1.329831      0.182466
  H       0.233700      2.592244      1.334186
  H      -1.117318      1.470959      1.514623
  H       0.884714     -1.480397      2.494471
  H      -0.745550     -0.866325      2.195003
  Br     -4.288990      0.102583     -0.080047
  C       0.034889     -0.750756     -3.060982
  O       0.655569     -0.538480     -1.818764
  H      -0.616036     -1.632356     -3.050935
  H      -0.546119      0.112539     -3.404752
  H       0.861841     -0.922574     -3.752010
23
Coordinates from ORCA-job optts+numfreq_MEP E -30.649746516480
  C       0.312699     -0.800600      1.882433
  C       0.775810      0.638587      2.060992
  C       0.092360      1.183832     -0.291280
  H      -1.170928     -0.520880     -0.790302
  C      -0.077973      1.544009      1.183302
  H       1.108927      1.432267     -0.601022
  H      -0.603592      1.780215     -0.888789
  C       0.489689     -1.241055      0.432936
  H       0.688515      0.936871      3.107934
  H       1.821847      0.725066      1.762583
  C      -0.105695     -0.303710     -0.630244
  H       0.061398     -2.237533      0.296546
  H       1.555305     -1.297719      0.204832
  H       0.214529      2.587932      1.317702
  H      -1.126662      1.451953      1.474854
  H       0.898954     -1.468705      2.517188
  H      -0.735395     -0.884333      2.179146
  Br     -4.377708      0.100400     -0.166521
  C      -0.007446     -0.724537     -3.054218
  O       0.649099     -0.596917     -1.818767
  H      -0.748971     -1.531450     -3.041421
  H      -0.499534      0.200188     -3.376270
  H       0.784772     -0.973882     -3.761613
23
Coordinates from ORCA-job optts+numfreq_MEP E -30.651550145060
  C       0.329170     -0.802583      1.888397
  C       0.763422      0.645631      2.069293
  C       0.123001      1.163831     -0.302484
  H      -1.150282     -0.546230     -0.746537
  C      -0.081047      1.534623      1.165437
  H       1.146783      1.405850     -0.592870
  H      -0.558515      1.756153     -0.920502
  C       0.540804     -1.243402      0.444300
  H       0.644348      0.947888      3.111945
  H       1.815422      0.747434      1.797968
  C      -0.080458     -0.326971     -0.620130
  H       0.146195     -2.252879      0.302881
  H       1.609491     -1.265973      0.225917
  H       0.196091      2.582748      1.299544
  H      -1.134828      1.432418      1.434380
  H       0.913616     -1.457327      2.538278
  H      -0.723503     -0.903531      2.162735
  Br     -4.470080      0.100154     -0.254649
  C      -0.048506     -0.698063     -3.044462
  O       0.638374     -0.652945     -1.819598
  H      -0.870036     -1.423198     -3.022897
  H      -0.448630      0.276356     -3.346529
  H       0.699167     -1.019982     -3.770418
23
Coordinates from ORCA-job optts+numfreq_MEP E -30.653211364870
  C       0.346049     -0.804959      1.893046
  C       0.750472      0.651917      2.076179
  C       0.153611      1.143571     -0.313723
  H      -1.129599     -0.569779     -0.701086
  C      -0.083910      1.524503      1.146619
  H       1.184093      1.379272     -0.584808
  H      -0.513198      1.731693     -0.951595
  C       0.591614     -1.245535      0.454743
  H       0.599269      0.957141      3.113728
  H       1.807566      0.769912      1.832353
  C      -0.055840     -0.350059     -0.610140
  H       0.230537     -2.266784      0.309514
  H       1.662138     -1.234412      0.245939
  H       0.177877      2.576655      1.279981
  H      -1.142311      1.411821      1.392629
  H       0.928469     -1.446264      2.557791
  H      -0.710242     -0.923769      2.145549
  Br     -4.562132      0.101692     -0.344402
  C      -0.088844     -0.671599     -3.031849
  O       0.623554     -0.706653     -1.821074
  H      -0.979522     -1.309382     -2.995619
  H      -0.395100      0.341299     -3.316138
  H       0.605453     -1.060282     -3.777638
23
Coordinates from ORCA-job optts+numfreq_MEP E -30.654707836410
  C       0.363164     -0.807755      1.896343
  C       0.736889      0.657386      2.081624
  C       0.184815      1.123192     -0.324988
  H      -1.108041     -0.590887     -0.654365
  C      -0.086421      1.513767      1.126792
  H       1.221645      1.352734     -0.576444
  H      -0.466813      1.706501     -0.982572
  C       0.642146     -1.247564      0.464197
  H       0.553042      0.964508      3.113221
  H       1.798181      0.792411      1.865902
  C      -0.030998     -0.372719     -0.600282
  H       0.314272     -2.279326      0.316219
  H       1.713470     -1.203299      0.265162
  H       0.159981      2.569739      1.259185
  H      -1.149059      1.390225      1.349109
  H       0.943084     -1.435609      2.575808
  H      -0.695926     -0.944799      2.127208
  Br     -4.655783      0.105051     -0.435526
  C      -0.128772     -0.645246     -3.016244
  O       0.605593     -0.757284     -1.823145
  H      -1.076371     -1.193345     -2.959243
  H      -0.342530      0.395142     -3.285046
  H       0.504434     -1.092824     -3.782914
23
Coordinates from ORCA-job optts+numfreq_MEP E -30.655982345180
  C       0.380567     -0.810968      1.898283
  C       0.722760      0.661971      2.085771
  C       0.217008      1.103038     -0.336112
  H      -1.085269     -0.609667     -0.607180
  C      -0.088254      1.502599      1.106160
  H       1.260155      1.326160     -0.567081
  H      -0.417972      1.681929     -1.013184
  C       0.692386     -1.249282      0.472536
  H       0.505698      0.969869      3.110530
  H       1.787292      0.814733      1.898862
  C      -0.005543     -0.394571     -0.590735
  H       0.397524     -2.290332      0.322696
  H       1.763722     -1.172370      0.283647
  H       0.142605      2.562136      1.237461
  H      -1.154636      1.367696      1.304107
  H       0.957525     -1.425341      2.592235
  H      -0.680569     -0.966732      2.107591
  Br     -4.755391      0.110560     -0.528505
  C      -0.168311     -0.619635     -2.997757
  O       0.585416     -0.804210     -1.825725
  H      -1.160246     -1.079014     -2.914058
  H      -0.294143      0.438129     -3.253687
  H       0.397677     -1.116696     -3.785855
23
Coordinates from ORCA-job optts+numfreq_MEP E -30.656973555880
  C       0.398312     -0.814625      1.898920
  C       0.708201      0.665633      2.088638
  C       0.249829      1.083199     -0.346959
  H      -1.060185     -0.627356     -0.560156
  C      -0.089366      1.491170      1.084942
  H       1.299012      1.300249     -0.557030
  H      -0.367885      1.657577     -1.042840
  C       0.742621     -1.250751      0.479821
  H       0.457502      0.973005      3.105714
  H       1.774869      0.836772      1.931075
  C       0.021122     -0.415726     -0.581580
  H       0.480471     -2.299925      0.328810
  H       1.813230     -1.141831      0.301652
  H       0.126088      2.553971      1.214985
  H      -1.159001      1.344938      1.257919
  H       0.971817     -1.415472      2.607131
  H      -0.664079     -0.989511      2.086801
  Br     -4.862922      0.120120     -0.623839
  C      -0.207441     -0.594990     -2.976489
  O       0.564195     -0.847193     -1.828673
  H      -1.231695     -0.969120     -2.860872
  H      -0.251827      0.471678     -3.222315
  H       0.287135     -1.131811     -3.785655
23
Coordinates from ORCA-job optts+numfreq_MEP E -30.657639340420
  C       0.416333     -0.818687      1.898388
  C       0.693455      0.668349      2.090281
  C       0.283629      1.063856     -0.357414
  H      -1.033153     -0.643331     -0.513587
  C      -0.089384      1.479697      1.063237
  H       1.338452      1.274922     -0.546227
  H      -0.316084      1.633822     -1.071532
  C       0.792736     -1.251867      0.486158
  H       0.408619      0.973897      3.098794
  H       1.761086      0.858235      1.962758
  C       0.048680     -0.436011     -0.572776
  H       0.563011     -2.308134      0.334530
  H       1.861806     -1.111611      0.319192
  H       0.110909      2.545472      1.191855
  H      -1.161596      1.322277      1.210865
  H       0.985828     -1.405991      2.620747
  H      -0.646431     -1.013035      2.064903
  Br     -4.976909      0.132649     -0.723677
  C      -0.246888     -0.571452     -2.952303
  O       0.542140     -0.886237     -1.831687
  H      -1.292312     -0.866477     -2.800322
  H      -0.218258      0.497494     -3.190445
  H       0.174330     -1.137837     -3.781739
23
Coordinates from ORCA-job optts+numfreq_MEP E -30.657887311600
  C       0.434528     -0.823075      1.896849
  C       0.678883      0.670110      2.090759
  C       0.318535      1.045218     -0.367256
  H      -1.004705     -0.656794     -0.468058
  C      -0.088165      1.468282      1.041291
  H       1.378444      1.250217     -0.534402
  H      -0.262368      1.611050     -1.099086
  C       0.842427     -1.252688      0.491637
  H       0.359635      0.972688      3.089731
  H       1.746158      0.878951      1.993771
  C       0.076597     -0.455154     -0.564392
  H       0.644654     -2.315041      0.339989
  H       1.908971     -1.081766      0.336223
  H       0.097410      2.536819      1.168294
  H      -1.162030      1.299977      1.163717
  H       0.999920     -1.396939      2.633071
  H      -0.627467     -1.037167      2.042566
  Br     -5.096730      0.146744     -0.829389
  C      -0.286960     -0.549105     -2.925261
  O       0.519527     -0.921360     -1.834541
  H      -1.343781     -0.772279     -2.733461
  H      -0.193962      0.517258     -3.158317
  H       0.060479     -1.135945     -3.773734
