23
Coordinates from ORCA-job optts+numfreq_product E -30.657868279270
  C       2.080789     -1.502046      0.108171
  C       2.675751     -0.099149      0.176791
  C       1.341444      0.561572     -1.846803
  H      -0.197195     -0.869915     -1.348800
  C       1.696685      0.915152     -0.405625
  H       2.233443      0.593610     -2.476563
  H       0.620785      1.285950     -2.232696
  C       1.727440     -1.862666     -1.330807
  H       2.900922      0.158940      1.213064
  H       3.606310     -0.071238     -0.393565
  C       0.746764     -0.848977     -1.921392
  H       1.277399     -2.855533     -1.380539
  H       2.624068     -1.866699     -1.952965
  H       2.127086      1.918123     -0.372723
  H       0.780367      0.925227      0.191437
  H       2.788526     -2.232265      0.504321
  H       1.175442     -1.541313      0.719479
  Br     -4.006946      0.349127      0.100209
  C      -0.638753     -0.664927     -3.860434
  O       0.483210     -1.261758     -3.258445
  H      -1.528656     -0.757921     -3.224949
  H      -0.473551      0.397040     -4.073758
  H      -0.801753     -1.199463     -4.794859
23
Coordinates from ORCA-job optts+numfreq_product E -30.657868661080
  C       2.079585     -1.502128      0.108108
  C       2.674551     -0.099276      0.177669
  C       1.341227      0.562539     -1.846377
  H      -0.197544     -0.868831     -1.348883
  C       1.695784      0.915378     -0.404770
  H       2.233555      0.594768     -2.475708
  H       0.620750      1.287155     -2.232268
  C       1.726791     -1.861990     -1.331186
  H       2.899258      0.158320      1.214225
  H       3.605433     -0.071127     -0.392225
  C       0.746375     -0.847929     -1.921558
  H       1.276624     -2.854767     -1.381564
  H       2.623628     -1.865810     -1.953034
  H       2.126167      1.918320     -0.371041
  H       0.779114      0.925107      0.191831
  H       2.787133     -2.232568      0.504177
  H       1.173966     -1.541666      0.719016
  Br     -3.981246      0.345693      0.088756
  C      -0.641196     -0.665581     -3.859286
  O       0.482360     -1.260826     -3.258511
  H      -1.529427     -0.757712     -3.221807
  H      -0.477210      0.395847     -4.075026
  H      -0.806101     -1.202044     -4.791986
23
Coordinates from ORCA-job optts+numfreq_product E -30.657870319790
  C       2.079915     -1.502586      0.107474
  C       2.674339     -0.099572      0.178348
  C       1.342278      0.563201     -1.846360
  H      -0.196277     -0.868633     -1.349972
  C       1.695627      0.915153     -0.404171
  H       2.235082      0.596048     -2.475024
  H       0.621807      1.287851     -2.232307
  C       1.728095     -1.861548     -1.332272
  H       2.898235      0.157447      1.215278
  H       3.605668     -0.070734     -0.390856
  C       0.747714     -0.847333     -1.922465
  H       1.278103     -2.854358     -1.383549
  H       2.625269     -1.864778     -1.953630
  H       2.125569      1.918232     -0.369280
  H       0.778434      0.924027      0.191701
  H       2.787457     -2.233058      0.503490
  H       1.173901     -1.542826      0.717770
  Br     -3.993174      0.352971      0.098989
  C      -0.640649     -0.667237     -3.860923
  O       0.483974     -1.260270     -3.259559
  H      -1.528134     -0.758522     -3.222775
  H      -0.477855      0.393583     -4.079467
  H      -0.805802     -1.206186     -4.791890
23
Coordinates from ORCA-job optts+numfreq_product E -30.657871089300
  C       2.079942     -1.502901      0.107152
  C       2.673464     -0.099531      0.178742
  C       1.342359      0.563129     -1.846573
  H      -0.195696     -0.869163     -1.350788
  C       1.694541      0.914816     -0.404058
  H       2.235553      0.596505     -2.474590
  H       0.621782      1.287463     -2.232913
  C       1.728983     -1.861573     -1.332887
  H       2.896612      0.157355      1.215841
  H       3.605101     -0.069972     -0.389887
  C       0.748405     -0.847518     -1.923079
  H       1.279398     -2.854538     -1.384730
  H       2.626436     -1.864188     -1.953831
  H       2.123854      1.918133     -0.368491
  H       0.776942      0.922908      0.191176
  H       2.787739     -2.233065      0.503280
  H       1.173660     -1.543866      0.716996
  Br     -3.993399      0.357500      0.103671
  C      -0.640213     -0.667643     -3.861311
  O       0.485018     -1.259968     -3.260305
  H      -1.527071     -0.757847     -3.221965
  H      -0.477357      0.392935     -4.081546
  H      -0.806478     -1.208101     -4.791353
23
Coordinates from ORCA-job optts+numfreq_product E -30.657872338710
  C       2.079618     -1.503696      0.106300
  C       2.670575     -0.099319      0.179990
  C       1.341974      0.563013     -1.846876
  H      -0.194542     -0.871034     -1.352960
  C       1.690986      0.914005     -0.403440
  H       2.236282      0.597997     -2.473121
  H       0.621076      1.286449     -2.234281
  C       1.731124     -1.861590     -1.334573
  H       2.891679      0.157100      1.217609
  H       3.603059     -0.067676     -0.387104
  C       0.749844     -0.848196     -1.924764
  H       1.282906     -2.855081     -1.388024
  H       2.629380     -1.862292     -1.954332
  H       2.118544      1.918001     -0.365975
  H       0.772305      0.919908      0.190116
  H       2.788188     -2.232945      0.502713
  H       1.172610     -1.546785      0.714904
  Br     -3.983584      0.368872      0.112462
  C      -0.639565     -0.668741     -3.862086
  O       0.487365     -1.259306     -3.262436
  H      -1.524242     -0.755281     -3.218993
  H      -0.476261      0.390869     -4.087413
  H      -0.809744     -1.213401     -4.789164
23
Coordinates from ORCA-job optts+numfreq_product E -30.657872865830
  C       2.079426     -1.504067      0.105863
  C       2.668813     -0.099079      0.180622
  C       1.341075      0.562753     -1.846815
  H      -0.194230     -0.872843     -1.353993
  C       1.688605      0.913546     -0.402982
  H       2.235899      0.598783     -2.472258
  H       0.619833      1.285571     -2.234700
  C       1.732246     -1.861692     -1.335408
  H       2.888933      0.157086      1.218511
  H       3.601656     -0.066185     -0.385811
  C       0.750265     -0.849018     -1.925585
  H       1.285136     -2.855632     -1.389646
  H       2.630919     -1.861095     -1.954561
  H       2.115106      1.917964     -0.364679
  H       0.769474      0.918256      0.189889
  H       2.788578     -2.232682      0.502395
  H       1.172099     -1.548438      0.713893
  Br     -3.974438      0.375450      0.116487
  C      -0.639042     -0.669179     -3.862630
  O       0.488342     -1.259433     -3.263559
  H      -1.522603     -0.753073     -3.217632
  H      -0.474805      0.389722     -4.090760
  H      -0.811711     -1.215844     -4.788088
23
Coordinates from ORCA-job optts+numfreq_product E -30.657873522510
  C       2.079379     -1.504499      0.105329
  C       2.666528     -0.098644      0.181294
  C       1.339000      0.562132     -1.846433
  H      -0.194207     -0.876172     -1.354981
  C       1.685120      0.912861     -0.402267
  H       2.234256      0.599748     -2.471210
  H       0.616987      1.283988     -2.234626
  C       1.733717     -1.861934     -1.336355
  H       2.885633      0.157215      1.219484
  H       3.599648     -0.063977     -0.384590
  C       0.750360     -0.850623     -1.926390
  H       1.288484     -2.856660     -1.391451
  H       2.632833     -1.859346     -1.954875
  H       2.110112      1.917893     -0.363224
  H       0.765658      0.916025      0.190116
  H       2.789491     -2.232155      0.501908
  H       1.171778     -1.550650      0.712813
  Br     -3.960818      0.385052      0.121874
  C      -0.637893     -0.669553     -3.863703
  O       0.489214     -1.260359     -3.264733
  H      -1.520434     -0.749286     -3.216839
  H      -0.471492      0.388241     -4.095381
  H      -0.813778     -1.218425     -4.787211
23
Coordinates from ORCA-job optts+numfreq_product E -30.657874187530
  C       2.079667     -1.504914      0.104845
  C       2.664448     -0.098134      0.181767
  C       1.336077      0.561288     -1.845763
  H      -0.194559     -0.880222     -1.355444
  C       1.681443      0.912041     -0.401454
  H       2.231414      0.600719     -2.470381
  H       0.612899      1.282062     -2.233765
  C       1.735169     -1.862245     -1.337130
  H       2.882872      0.157466      1.220176
  H       3.597621     -0.061580     -0.383923
  C       0.749996     -0.852592     -1.926793
  H       1.292116     -2.857902     -1.392903
  H       2.634550     -1.857449     -1.955277
  H       2.104803      1.917750     -0.362035
  H       0.761938      0.913649      0.190888
  H       2.790909     -2.231541      0.501308
  H       1.171966     -1.552888      0.712034
  Br     -3.947010      0.395702      0.127488
  C      -0.636241     -0.669758     -3.865179
  O       0.489600     -1.262060     -3.265370
  H      -1.518424     -0.744845     -3.217363
  H      -0.466817      0.386807     -4.100166
  H      -0.814859     -1.220482     -4.787007
23
Coordinates from ORCA-job optts+numfreq_product E -30.657874989030
  C       2.080457     -1.505502      0.104256
  C       2.662050     -0.097467      0.182190
  C       1.331646      0.560093     -1.844694
  H      -0.195297     -0.885790     -1.355477
  C       1.676631      0.910794     -0.400313
  H       2.226715      0.602159     -2.469606
  H       0.606547      1.279398     -2.231827
  C       1.737032     -1.862653     -1.338002
  H       2.879893      0.157861      1.220796
  H       3.595098     -0.058346     -0.383550
  C       0.749169     -0.855256     -1.926880
  H       1.296902     -2.859558     -1.394540
  H       2.636519     -1.854874     -1.955986
  H       2.097731      1.917451     -0.360621
  H       0.757302      0.910259      0.192325
  H       2.793286     -2.230780      0.500362
  H       1.172792     -1.555855      0.711302
  Br     -3.930046      0.410659      0.135081
  C      -0.633675     -0.669963     -3.867467
  O       0.489643     -1.264892     -3.265540
  H      -1.516116     -0.738840     -3.219414
  H      -0.459729      0.384934     -4.106471
  H      -0.814970     -1.222960     -4.787372
23
Coordinates from ORCA-job optts+numfreq_product E -30.657875602870
  C       2.081460     -1.506050      0.103823
  C       2.660427     -0.096967      0.182366
  C       1.327787      0.559142     -1.843785
  H      -0.195995     -0.890148     -1.354985
  C       1.672854      0.909624     -0.399371
  H       2.222343      0.603569     -2.469292
  H       0.600844      1.277257     -2.229682
  C       1.738478     -1.862972     -1.338586
  H       2.878016      0.158240      1.221051
  H       3.593241     -0.055713     -0.383604
  C       0.748308     -0.857316     -1.926591
  H       1.300561     -2.860816     -1.395678
  H       2.637817     -1.852824     -1.956752
  H       2.092006      1.917095     -0.359488
  H       0.753770      0.907171      0.193667
  H       2.795632     -2.230257      0.499463
  H       1.173956     -1.558291      0.710946
  Br     -3.917786      0.423427      0.141216
  C      -0.631398     -0.670121     -3.869513
  O       0.489318     -1.267528     -3.265115
  H      -1.514654     -0.734251     -3.222103
  H      -0.453568      0.383480     -4.111287
  H      -0.813840     -1.224880     -4.788149
23
Coordinates from ORCA-job optts+numfreq_product E -30.657875993450
  C       2.082335     -1.506517      0.103527
  C       2.659454     -0.096693      0.182440
  C       1.325263      0.558627     -1.843253
  H      -0.196356     -0.892672     -1.354419
  C       1.670375      0.908721     -0.398718
  H       2.219378      0.604859     -2.469223
  H       0.596954      1.275973     -2.228032
  C       1.739445     -1.863152     -1.338971
  H       2.876902      0.158500      1.221149
  H       3.592099     -0.053938     -0.383691
  C       0.747772     -0.858484     -1.926276
  H       1.302743     -2.861495     -1.396500
  H       2.638548     -1.851500     -1.957432
  H       2.088079      1.916783     -0.358475
  H       0.751388      0.904695      0.194482
  H       2.797445     -2.230017      0.498738
  H       1.174986     -1.560059      0.710768
  Br     -3.910335      0.432651      0.145289
  C      -0.629919     -0.670361     -3.870926
  O       0.489027     -1.269289     -3.264604
  H      -1.513959     -0.731843     -3.224299
  H      -0.449692      0.382484     -4.114184
  H      -0.812355     -1.226404     -4.788839
23
Coordinates from ORCA-job optts+numfreq_product E -30.657876190290
  C       2.082804     -1.506837      0.103330
  C       2.658851     -0.096589      0.182529
  C       1.324136      0.558486     -1.843064
  H      -0.196390     -0.893695     -1.354229
  C       1.669003      0.908206     -0.398333
  H       2.218105      0.605816     -2.469110
  H       0.595127      1.275444     -2.227260
  C       1.739998     -1.863213     -1.339249
  H       2.876137      0.158610      1.221267
  H       3.591460     -0.052974     -0.383593
  C       0.747652     -0.858941     -1.926215
  H       1.303742     -2.861723     -1.397139
  H       2.638972     -1.850817     -1.957864
  H       2.085830      1.916610     -0.357597
  H       0.749932      0.903108      0.194727
  H       2.798446     -2.229939      0.498276
  H       1.175521     -1.561164      0.710600
  Br     -3.906110      0.438120      0.147394
  C      -0.629319     -0.670688     -3.871604
  O       0.489046     -1.270008     -3.264456
  H      -1.513674     -0.731354     -3.225295
  H      -0.448271      0.381889     -4.115391
  H      -0.811422     -1.227476     -4.789173
23
Coordinates from ORCA-job optts+numfreq_product E -30.657876376470
  C       2.083110     -1.507133      0.103125
  C       2.658168     -0.096503      0.182679
  C       1.323332      0.558433     -1.842953
  H      -0.196326     -0.894462     -1.354322
  C       1.667705      0.907782     -0.397967
  H       2.217321      0.606746     -2.468848
  H       0.593813      1.275060     -2.226810
  C       1.740510     -1.863249     -1.339561
  H       2.875227      0.158685      1.221468
  H       3.590798     -0.052116     -0.383349
  C       0.747690     -0.859280     -1.926337
  H       1.304564     -2.861864     -1.397858
  H       2.639434     -1.850229     -1.958222
  H       2.083723      1.916492     -0.356604
  H       0.748452      0.901649      0.194794
  H       2.799245     -2.229854      0.497847
  H       1.175854     -1.562233      0.710365
  Br     -3.901440      0.443251      0.149009
  C      -0.629004     -0.671145     -3.872067
  O       0.489298     -1.270399     -3.264580
  H      -1.513444     -0.731747     -3.225843
  H      -0.447766      0.381370     -4.115947
  H      -0.810687     -1.228383     -4.789467
23
Coordinates from ORCA-job optts+numfreq_product E -30.657876687390
  C       2.083470     -1.507609      0.102723
  C       2.656773     -0.096317      0.183044
  C       1.321945      0.558317     -1.842705
  H      -0.196233     -0.896030     -1.354844
  C       1.665272      0.907105     -0.397275
  H       2.216115      0.608262     -2.468161
  H       0.591659      1.274342     -2.226236
  C       1.741464     -1.863294     -1.340194
  H       2.873345      0.158768      1.221965
  H       3.589477     -0.050556     -0.382758
  C       0.747824     -0.859957     -1.926747
  H       1.306223     -2.862166     -1.399245
  H       2.640425     -1.849104     -1.958764
  H       2.079897      1.916336     -0.354827
  H       0.745679      0.899238      0.194927
  H       2.800478     -2.229632      0.497116
  H       1.176214     -1.564142      0.709827
  Br     -3.891835      0.452617      0.151840
  C      -0.628559     -0.672083     -3.872806
  O       0.489985     -1.270924     -3.265117
  H      -1.512959     -0.733021     -3.226548
  H      -0.447448      0.380458     -4.116583
  H      -0.809637     -1.229735     -4.790081
23
Coordinates from ORCA-job optts+numfreq_product E -30.657877263080
  C       2.083967     -1.508433      0.101921
  C       2.653972     -0.095913      0.183845
  C       1.319194      0.558016     -1.842092
  H      -0.196175     -0.899458     -1.356184
  C       1.660534      0.905893     -0.395911
  H       2.213785      0.610865     -2.466667
  H       0.587562      1.272869     -2.225247
  C       1.743339     -1.863348     -1.341483
  H       2.869553      0.158836      1.223066
  H       3.586834     -0.047534     -0.381499
  C       0.748062     -0.861390     -1.927675
  H       1.309780     -2.862858     -1.401937
  H       2.642508     -1.846785     -1.959682
  H       2.072613      1.916081     -0.351622
  H       0.740376      0.894981      0.195353
  H       2.802586     -2.229131      0.495791
  H       1.176651     -1.567699      0.708660
  Br     -3.872318      0.470817      0.157438
  C      -0.627709     -0.673984     -3.874213
  O       0.491489     -1.271842     -3.266410
  H      -1.511978     -0.736000     -3.227887
  H      -0.447309      0.378760     -4.117482
  H      -0.807737     -1.231869     -4.791532
23
Coordinates from ORCA-job optts+numfreq_product E -30.657878391920
  C       2.084765     -1.510054      0.100176
  C       2.647881     -0.095010      0.185710
  C       1.313078      0.557286     -1.840526
  H      -0.196392     -0.907372     -1.359480
  C       1.650390      0.903399     -0.392921
  H       2.208535      0.616016     -2.463309
  H       0.578668      1.269620     -2.223067
  C       1.747355     -1.863334     -1.344338
  H       2.861255      0.158792      1.225635
  H       3.581076     -0.041062     -0.378609
  C       0.748434     -0.864543     -1.929752
  H       1.317919     -2.864434     -1.407717
  H       2.647119     -1.841480     -1.961508
  H       2.057251      1.915535     -0.345162
  H       0.729251      0.886452      0.196628
  H       2.806642     -2.228011      0.493100
  H       1.177224     -1.575042      0.705963
  Br     -3.828574      0.509788      0.169331
  C      -0.625866     -0.678192     -3.877230
  O       0.494808     -1.273737     -3.269368
  H      -1.509943     -0.743025     -3.230892
  H      -0.447597      0.375185     -4.119088
  H      -0.803701     -1.235904     -4.795025
23
Coordinates from ORCA-job optts+numfreq_product E -30.657879389150
  C       2.085021     -1.511078      0.098904
  C       2.643522     -0.094396      0.187224
  C       1.308808      0.556845     -1.839197
  H      -0.196515     -0.913110     -1.362165
  C       1.643345      0.901752     -0.390700
  H       2.204897      0.619366     -2.460741
  H       0.572668      1.267504     -2.221511
  C       1.750138     -1.863160     -1.346460
  H       2.855239      0.158475      1.227721
  H       3.576981     -0.036586     -0.376295
  C       0.748720     -0.866640     -1.931395
  H       1.323919     -2.865509     -1.411842
  H       2.650470     -1.837520     -1.962667
  H       2.046772      1.915163     -0.340788
  H       0.721583      0.880966      0.197812
  H       2.808973     -2.227247      0.491312
  H       1.177214     -1.579949      0.703840
  Br     -3.794466      0.538489      0.175993
  C      -0.625153     -0.681747     -3.879067
  O       0.497588     -1.274314     -3.271960
  H      -1.509354     -0.752572     -3.233511
  H      -0.451257      0.373214     -4.117059
  H      -0.799534     -1.237076     -4.798898
23
Coordinates from ORCA-job optts+numfreq_product E -30.657880137970
  C       2.083734     -1.509875      0.099812
  C       2.647440     -0.095177      0.186527
  C       1.314012      0.557935     -1.839964
  H      -0.195334     -0.907398     -1.361101
  C       1.650566      0.903802     -0.392340
  H       2.210034      0.615797     -2.462182
  H       0.580676      1.270746     -2.223525
  C       1.747501     -1.862831     -1.345014
  H       2.860328      0.157703      1.226774
  H       3.580888     -0.041282     -0.377390
  C       0.749245     -0.863889     -1.931008
  H       1.318574     -2.864174     -1.408565
  H       2.647950     -1.841020     -1.961233
  H       2.057972      1.915741     -0.344603
  H       0.729104      0.887619      0.197142
  H       2.805144     -2.228188      0.493063
  H       1.175786     -1.574812      0.704973
  Br     -3.818500      0.518921      0.163735
  C      -0.628699     -0.681365     -3.875990
  O       0.497649     -1.269913     -3.272210
  H      -1.513374     -0.765875     -3.232909
  H      -0.464201      0.377342     -4.103936
  H      -0.796919     -1.228934     -4.801505
23
Coordinates from ORCA-job optts+numfreq_product E -30.657881077800
  C       2.084065     -1.510169      0.099384
  C       2.646629     -0.095009      0.186975
  C       1.312378      0.557605     -1.839319
  H      -0.195913     -0.910056     -1.361553
  C       1.649059      0.903376     -0.391716
  H       2.208143      0.616438     -2.461850
  H       0.578141      1.269804     -2.222395
  C       1.748647     -1.862738     -1.345795
  H       2.858901      0.157419      1.227445
  H       3.580203     -0.039975     -0.376607
  C       0.749052     -0.864733     -1.931064
  H       1.321402     -2.864757     -1.409867
  H       2.649273     -1.839280     -1.961709
  H       2.055825      1.915597     -0.344119
  H       0.727970      0.886699      0.198030
  H       2.805701     -2.228199      0.492717
  H       1.175851     -1.575897      0.704082
  Br     -3.815699      0.525093      0.169459
  C      -0.627284     -0.681757     -3.877228
  O       0.497676     -1.271243     -3.272047
  H      -1.512270     -0.760912     -3.233922
  H      -0.460118      0.375589     -4.109615
  H      -0.798053     -1.232023     -4.800734
