23
Coordinates from ORCA-job optts+numfreq_TSOpt_IRC_B E -30.560498844780
  C       0.133563     -0.809553      1.795466
  C       0.819482      0.541646      1.951278
  C      -0.287384      1.390235     -0.140058
  H      -1.271963     -0.226184     -1.361566
  C      -0.065012      1.628889      1.354819
  H       0.651714      1.583064     -0.670613
  H      -1.035039      2.086666     -0.529380
  C      -0.075180     -1.142581      0.316318
  H       1.001100      0.746997      3.008330
  H       1.777956      0.525454      1.427246
  C      -0.661792     -0.019822     -0.497465
  H      -0.688750     -2.042500      0.212263
  H       0.905108     -1.354981     -0.123298
  H       0.394469      2.611355      1.482570
  H      -1.026486      1.636356      1.872656
  H       0.736546     -1.601844      2.244885
  H      -0.830091     -0.787452      2.308372
  Br     -2.875803     -0.029045      0.559577
  C       0.477440     -0.959106     -3.050448
  O       0.745122     -0.111787     -2.025443
  H       0.624650     -2.027268     -2.778511
  H      -0.567937     -0.865258     -3.418782
  H       1.136327     -0.747800     -3.911221
23
Coordinates from ORCA-job optts+numfreq_TSOpt_IRC_B E -30.565426662110
  C       0.133275     -0.808893      1.792433
  C       0.819374      0.541538      1.950650
  C      -0.285045      1.388486     -0.145006
  H      -1.279535     -0.226395     -1.358683
  C      -0.065090      1.627149      1.352055
  H       0.655156      1.587867     -0.671458
  H      -1.034664      2.084290     -0.529502
  C      -0.072683     -1.143379      0.311440
  H       1.000726      0.746883      3.007903
  H       1.778126      0.525416      1.427247
  C      -0.602613     -0.022134     -0.534501
  H      -0.688900     -2.040440      0.211763
  H       0.909292     -1.359556     -0.122413
  H       0.393734      2.610562      1.482273
  H      -1.026311      1.635654      1.871271
  H       0.735595     -1.601252      2.244410
  H      -0.830187     -0.787199      2.306842
  Br     -2.912049     -0.029602      0.574422
  C       0.472422     -0.959100     -3.044679
  O       0.726151     -0.108701     -2.000940
  H       0.624018     -2.025535     -2.777076
  H      -0.567548     -0.864866     -3.418409
  H       1.134794     -0.745314     -3.903047
23
Coordinates from ORCA-job optts+numfreq_TSOpt_IRC_B E -30.572560375330
  C       0.133016     -0.807703      1.790108
  C       0.819502      0.541405      1.950160
  C      -0.278984      1.388625     -0.150153
  H      -1.289098     -0.226083     -1.350946
  C      -0.065021      1.625162      1.350253
  H       0.659066      1.595969     -0.670946
  H      -1.034892      2.080446     -0.529794
  C      -0.066516     -1.144711      0.306610
  H       1.000254      0.746767      3.007447
  H       1.778469      0.525420      1.427257
  C      -0.555496     -0.026301     -0.576289
  H      -0.689790     -2.037351      0.210476
  H       0.914495     -1.366684     -0.118859
  H       0.392952      2.609711      1.481393
  H      -1.026306      1.634668      1.869503
  H       0.734695     -1.600889      2.243461
  H      -0.830355     -0.786861      2.304827
  Br     -2.942534     -0.030376      0.585602
  C       0.466163     -0.960600     -3.039417
  O       0.708988     -0.106932     -1.979626
  H       0.623269     -2.023521     -2.774804
  H      -0.567661     -0.864442     -3.417243
  H       1.133826     -0.740240     -3.892028
23
Coordinates from ORCA-job optts+numfreq_TSOpt_IRC_B E -30.582133303700
  C       0.132769     -0.806278      1.786900
  C       0.819629      0.541296      1.949783
  C      -0.273825      1.386650     -0.157053
  H      -1.301131     -0.226174     -1.343613
  C      -0.064972      1.622613      1.347751
  H       0.664675      1.606395     -0.670577
  H      -1.034876      2.075655     -0.530022
  C      -0.061663     -1.145059      0.299620
  H       0.999735      0.746646      3.006996
  H       1.779019      0.525442      1.427265
  C      -0.503309     -0.029824     -0.617486
  H      -0.690481     -2.033340      0.208871
  H       0.921847     -1.375726     -0.114733
  H       0.391948      2.608549      1.480152
  H      -1.026304      1.633377      1.867258
  H       0.733525     -1.600393      2.242063
  H      -0.830574     -0.786420      2.302270
  Br     -2.972278     -0.031247      0.595860
  C       0.459753     -0.961462     -3.033144
  O       0.688475     -0.105183     -1.954578
  H       0.622176     -2.021788     -2.771943
  H      -0.568726     -0.864217     -3.415825
  H       1.132630     -0.734031     -3.878821
23
Coordinates from ORCA-job optts+numfreq_TSOpt_IRC_B E -30.592110719880
  C       0.132097     -0.805534      1.783424
  C       0.819971      0.541128      1.948849
  C      -0.265415      1.387327     -0.161191
  H      -1.304551     -0.224536     -1.330570
  C      -0.065287      1.620495      1.344680
  H       0.668979      1.616362     -0.669870
  H      -1.035464      2.070976     -0.530738
  C      -0.052914     -1.146102      0.295834
  H       0.999250      0.746566      3.006791
  H       1.779453      0.525484      1.427400
  C      -0.469606     -0.036301     -0.664390
  H      -0.691852     -2.029860      0.206845
  H       0.927558     -1.384343     -0.110367
  H       0.390909      2.607254      1.478761
  H      -1.026229      1.632084      1.865030
  H       0.732333     -1.599857      2.240484
  H      -0.830625     -0.785968      2.299708
  Br     -2.997753     -0.032020      0.604465
  C       0.453253     -0.962137     -3.026226
  O       0.671087     -0.103325     -1.931866
  H       0.621038     -2.020131     -2.769223
  H      -0.569908     -0.864141     -3.414379
  H       1.131719     -0.727941     -3.866458
23
Coordinates from ORCA-job optts+numfreq_TSOpt_IRC_B E -30.601838615010
  C       0.131546     -0.804497      1.779303
  C       0.820278      0.540961      1.948001
  C      -0.257558      1.386427     -0.167163
  H      -1.309946     -0.223401     -1.318861
  C      -0.065486      1.617873      1.341121
  H       0.674493      1.627931     -0.669370
  H      -1.035695      2.065554     -0.531473
  C      -0.045069     -1.146617      0.289960
  H       0.998659      0.746448      3.006429
  H       1.780011      0.525528      1.427515
  C      -0.431932     -0.041941     -0.708318
  H      -0.692940     -2.025701      0.204583
  H       0.934801     -1.394338     -0.105745
  H       0.389705      2.605749      1.477098
  H      -1.026216      1.630538      1.862390
  H       0.730950     -1.599247      2.238609
  H      -0.830779     -0.785442      2.296684
  Br     -3.023923     -0.032859      0.612996
  C       0.446431     -0.962386     -3.018358
  O       0.652115     -0.101482     -1.907455
  H       0.619630     -2.018453     -2.765977
  H      -0.571613     -0.864112     -3.412632
  H       1.130579     -0.721053     -3.852344
23
Coordinates from ORCA-job optts+numfreq_TSOpt_IRC_B E -30.609817860230
  C       0.131282     -0.803044      1.773998
  C       0.820436      0.540739      1.947087
  C      -0.249371      1.383747     -0.176189
  H      -1.316736     -0.222615     -1.307274
  C      -0.065411      1.614430      1.336619
  H       0.682137      1.642897     -0.669153
  H      -1.035266      2.058407     -0.532483
  C      -0.037450     -1.146872      0.280951
  H       0.997832      0.746264      3.005792
  H       1.780871      0.525582      1.427602
  C      -0.395072     -0.046665     -0.745347
  H      -0.693537     -2.020127      0.201583
  H       0.944833     -1.407294     -0.100401
  H       0.388122      2.603732      1.474809
  H      -1.026259      1.628409      1.858731
  H       0.729140     -1.598452      2.236068
  H      -0.831069     -0.784747      2.292538
  Br     -3.051978     -0.033844      0.621630
  C       0.439424     -0.961344     -3.008273
  O       0.634072     -0.100310     -1.884937
  H       0.617647     -2.016746     -2.761528
  H      -0.574544     -0.864110     -3.410173
  H       1.128937     -0.712559     -3.834656
23
Coordinates from ORCA-job optts+numfreq_TSOpt_IRC_B E -30.615750241280
  C       0.131083     -0.801899      1.766127
  C       0.820983      0.540345      1.945178
  C      -0.237202      1.381334     -0.186191
  H      -1.319407     -0.221035     -1.291072
  C      -0.065139      1.610183      1.329436
  H       0.692193      1.663470     -0.669188
  H      -1.034423      2.048220     -0.534827
  C      -0.025559     -1.147574      0.271215
  H       0.996485      0.745973      3.004845
  H       1.782061      0.525682      1.427869
  C      -0.372923     -0.052149     -0.775400
  H      -0.694230     -2.012852      0.196591
  H       0.957846     -1.425238     -0.093347
  H       0.385802      2.600649      1.471207
  H      -1.026253      1.625038      1.852790
  H       0.726524     -1.597300      2.232159
  H      -0.831374     -0.783712      2.285866
  Br     -3.085545     -0.035128      0.631340
  C       0.430870     -0.959798     -2.995194
  O       0.623868     -0.099237     -1.870567
  H       0.614524     -2.014522     -2.754852
  H      -0.578996     -0.864035     -3.405950
  H       1.126853     -0.700936     -3.811041
23
Coordinates from ORCA-job optts+numfreq_TSOpt_IRC_B E -30.620547636810
  C       0.132384     -0.800797      1.757545
  C       0.821329      0.539657      1.942329
  C      -0.226744      1.379114     -0.197121
  H      -1.325374     -0.220425     -1.276387
  C      -0.063599      1.605782      1.321500
  H       0.704185      1.687703     -0.670307
  H      -1.031770      2.035016     -0.538910
  C      -0.015462     -1.150157      0.260965
  H       0.994127      0.745390      3.002738
  H       1.784298      0.525815      1.428070
  C      -0.356867     -0.052208     -0.776963
  H      -0.693402     -2.003835      0.189396
  H       0.973662     -1.447110     -0.086111
  H       0.382802      2.596741      1.466032
  H      -1.026031      1.619773      1.843096
  H       0.723205     -1.596118      2.226859
  H      -0.831785     -0.782272      2.275179
  Br     -3.124277     -0.036741      0.641787
  C       0.423830     -0.957888     -2.983337
  O       0.624667     -0.098768     -1.871752
  H       0.609852     -2.012598     -2.745169
  H      -0.585351     -0.863537     -3.399111
  H       1.124362     -0.687058     -3.783333
23
Coordinates from ORCA-job optts+numfreq_TSOpt_IRC_B E -30.624404227770
  C       0.134259     -0.801426      1.750136
  C       0.823052      0.538816      1.938092
  C      -0.213384      1.381694     -0.201134
  H      -1.321434     -0.218324     -1.257717
  C      -0.061532      1.603286      1.314177
  H       0.711629      1.708550     -0.671768
  H      -1.030094      2.023005     -0.545771
  C      -0.001132     -1.153337      0.257505
  H       0.990685      0.744474      2.999488
  H       1.787354      0.525976      1.428272
  C      -0.349085     -0.052799     -0.780807
  H      -0.693346     -1.997517      0.180295
  H       0.984554     -1.467404     -0.080153
  H       0.380357      2.594309      1.460731
  H      -1.026227      1.612845      1.830541
  H       0.720720     -1.596369      2.222258
  H      -0.832607     -0.780491      2.261206
  Br     -3.164002     -0.038529      0.651858
  C       0.416990     -0.958349     -2.974701
  O       0.624623     -0.094219     -1.868510
  H       0.604144     -2.011711     -2.734281
  H      -0.591799     -0.862702     -3.390439
  H       1.124314     -0.674297     -3.762285
23
Coordinates from ORCA-job optts+numfreq_TSOpt_IRC_B E -30.627726199040
  C       0.137567     -0.802067      1.743757
  C       0.824985      0.537864      1.933882
  C      -0.203846      1.383166     -0.207370
  H      -1.319803     -0.216444     -1.239228
  C      -0.058432      1.601456      1.308252
  H       0.719028      1.728695     -0.674359
  H      -1.027427      2.011354     -0.553417
  C       0.009022     -1.157249      0.251714
  H       0.986686      0.743340      2.995604
  H       1.791727      0.526122      1.428103
  C      -0.333784     -0.050838     -0.774802
  H      -0.691664     -1.991073      0.170537
  H       0.995763     -1.487962     -0.075791
  H       0.378383      2.593647      1.456395
  H      -1.027082      1.604578      1.816053
  H       0.718858     -1.597871      2.219233
  H      -0.834223     -0.778440      2.244797
  Br     -3.207296     -0.040622      0.662171
  C       0.412278     -0.956366     -2.965156
  O       0.624317     -0.090516     -1.868123
  H       0.597645     -2.010305     -2.722117
  H      -0.598220     -0.861558     -3.380211
  H       1.123557     -0.663430     -3.742933
23
Coordinates from ORCA-job optts+numfreq_TSOpt_IRC_B E -30.630457250350
  C       0.141079     -0.804048      1.737480
  C       0.827513      0.536909      1.929171
  C      -0.192847      1.387060     -0.210361
  H      -1.313815     -0.213714     -1.218406
  C      -0.055343      1.600902      1.301982
  H       0.724331      1.745999     -0.677688
  H      -1.025122      2.001412     -0.561789
  C       0.021891     -1.161652      0.249254
  H       0.982816      0.742103      2.991887
  H       1.796521      0.526302      1.428039
  C      -0.324059     -0.050066     -0.773472
  H      -0.690091     -1.986529      0.160438
  H       1.004485     -1.506760     -0.073255
  H       0.376427      2.593976      1.453860
  H      -1.028125      1.595818      1.801066
  H       0.717088     -1.599735      2.218065
  H      -0.835909     -0.776342      2.227290
  Br     -3.251881     -0.042972      0.672053
  C       0.407671     -0.955287     -2.957060
  O       0.625710     -0.084220     -1.865215
  H       0.591088     -2.007935     -2.709500
  H      -0.603708     -0.859893     -3.369018
  H       1.122322     -0.655850     -3.727827
23
Coordinates from ORCA-job optts+numfreq_TSOpt_IRC_B E -30.632774666070
  C       0.145189     -0.805693      1.731786
  C       0.830271      0.535979      1.924742
  C      -0.183375      1.389964     -0.215312
  H      -1.309544     -0.211191     -1.198395
  C      -0.051911      1.600410      1.296969
  H       0.729704      1.762007     -0.681998
  H      -1.022114      1.992801     -0.570160
  C       0.032980     -1.165939      0.244208
  H       0.979071      0.740655      2.987758
  H       1.801716      0.526541      1.428042
  C      -0.310458     -0.047728     -0.766290
  H      -0.687057     -1.982623      0.150399
  H       1.013650     -1.524940     -0.072618
  H       0.374243      2.595132      1.453368
  H      -1.029313      1.586549      1.785557
  H       0.715217     -1.601803      2.218902
  H      -0.837766     -0.774226      2.208555
  Br     -3.299962     -0.045711      0.681921
  C       0.404249     -0.952504     -2.947718
  O       0.627610     -0.078651     -1.864946
  H       0.584490     -2.004919     -2.695497
  H      -0.609087     -0.857327     -3.356540
  H       1.120239     -0.651304     -3.715738
23
Coordinates from ORCA-job optts+numfreq_TSOpt_IRC_B E -30.634671609300
  C       0.149265     -0.807950      1.726190
  C       0.832788      0.534979      1.920224
  C      -0.173995      1.394792     -0.217762
  H      -1.303159     -0.208443     -1.178791
  C      -0.048806      1.600589      1.292162
  H       0.734834      1.775438     -0.686860
  H      -1.018242      1.985874     -0.577893
  C       0.045093     -1.170922      0.241713
  H       0.976037      0.739145      2.984283
  H       1.806887      0.526899      1.428169
  C      -0.299010     -0.045875     -0.764613
  H      -0.682752     -1.979699      0.140761
  H       1.022294     -1.540703     -0.073932
  H       0.371484      2.596140      1.455047
  H      -1.030324      1.577394      1.770927
  H       0.712731     -1.603126      2.221061
  H      -0.839364     -0.772165      2.189852
  Br     -3.349984     -0.048716      0.691017
  C       0.401164     -0.950871     -2.940603
  O       0.629969     -0.071199     -1.862381
  H       0.578260     -2.001510     -2.680777
  H      -0.614115     -0.854011     -3.343495
  H       1.116986     -0.650581     -3.707307
23
Coordinates from ORCA-job optts+numfreq_TSOpt_IRC_B E -30.636242407400
  C       0.153440     -0.809533      1.720489
  C       0.835705      0.534192      1.916747
  C      -0.164688      1.398064     -0.221299
  H      -1.296508     -0.205778     -1.161740
  C      -0.045607      1.600348      1.288235
  H       0.740582      1.787253     -0.691325
  H      -1.013577      1.981230     -0.584799
  C       0.056955     -1.174238      0.236668
  H       0.973611      0.737404      2.980908
  H       1.811471      0.527406      1.428442
  C      -0.288004     -0.043472     -0.758813
  H      -0.676779     -1.977773      0.131639
  H       1.031651     -1.554088     -0.076350
  H       0.368341      2.597417      1.458873
  H      -1.031828      1.568307      1.757690
  H       0.710077     -1.604271      2.224590
  H      -0.841464     -0.770080      2.171542
  Br     -3.403261     -0.052119      0.699231
  C       0.398265     -0.948805     -2.932678
  O       0.633860     -0.064548     -1.863797
  H       0.572092     -1.997912     -2.665199
  H      -0.619173     -0.850346     -3.329955
  H       1.112880     -0.653177     -3.702106
23
Coordinates from ORCA-job optts+numfreq_TSOpt_IRC_B E -30.637516239450
  C       0.157229     -0.811083      1.715753
  C       0.837766      0.533312      1.913688
  C      -0.155256      1.402996     -0.222996
  H      -1.291174     -0.202810     -1.147600
  C      -0.043030      1.600471      1.285831
  H       0.747161      1.796914     -0.694622
  H      -1.007154      1.978363     -0.590722
  C       0.069464     -1.177653      0.233340
  H       0.971955      0.735427      2.978361
  H       1.816029      0.528153      1.428693
  C      -0.276144     -0.040698     -0.758202
  H      -0.668502     -1.976548      0.122460
  H       1.042103     -1.563920     -0.079677
  H       0.364427      2.598088      1.464190
  H      -1.032851      1.559194      1.745561
  H       0.706609     -1.604614      2.228009
  H      -0.842936     -0.767883      2.153030
  Br     -3.458405     -0.056262      0.706876
  C       0.395252     -0.947545     -2.925619
  O       0.636972     -0.057413     -1.864411
  H       0.565623     -1.994765     -2.648894
  H      -0.624707     -0.847014     -3.316360
  H       1.107612     -0.659231     -3.699695
23
Coordinates from ORCA-job optts+numfreq_TSOpt_IRC_B E -30.638564156690
  C       0.160907     -0.812191      1.709347
  C       0.840226      0.532807      1.912047
  C      -0.146491      1.405738     -0.225403
  H      -1.283700     -0.199105     -1.136322
  C      -0.040631      1.599948      1.283359
  H       0.755709      1.805000     -0.695641
  H      -0.999195      1.978331     -0.595513
  C       0.081238     -1.178631      0.227027
  H       0.971161      0.733239      2.977138
  H       1.819826      0.529156      1.429176
  C      -0.266684     -0.037401     -0.754677
  H      -0.657121     -1.976063      0.113388
  H       1.053835     -1.568910     -0.082741
  H       0.360193      2.598970      1.470993
  H      -1.034726      1.550309      1.735768
  H       0.703131     -1.605198      2.231434
  H      -0.845160     -0.765501      2.135852
  Br     -3.515114     -0.061227      0.713767
  C       0.391597     -0.948017     -2.920296
  O       0.640007     -0.050291     -1.866958
  H       0.558535     -1.992132     -2.632380
  H      -0.630517     -0.844877     -3.303203
  H       1.101016     -0.668472     -3.699170
23
Coordinates from ORCA-job optts+numfreq_TSOpt_IRC_B E -30.638899402440
  C       0.162880     -0.812103      1.708225
  C       0.840055      0.532580      1.912272
  C      -0.143741      1.407860     -0.224799
  H      -1.282521     -0.197805     -1.133423
  C      -0.039044      1.599958      1.283572
  H       0.759717      1.807095     -0.695230
  H      -0.995384      1.979026     -0.597095
  C       0.085353     -1.179046      0.226458
  H       0.970909      0.732097      2.976160
  H       1.821241      0.529671      1.429405
  C      -0.262313     -0.035790     -0.755616
  H      -0.652111     -1.976365      0.109555
  H       1.059363     -1.568681     -0.084156
  H       0.358206      2.598778      1.473458
  H      -1.035650      1.547168      1.732851
  H       0.701420     -1.605163      2.231684
  H      -0.846043     -0.764719      2.129832
  Br     -3.536191     -0.063298      0.715822
  C       0.390027     -0.948319     -2.918204
  O       0.641243     -0.047908     -1.868754
  H       0.555699     -1.991797     -2.626510
  H      -0.633156     -0.844930     -3.299163
  H       1.098084     -0.672830     -3.699352
23
Coordinates from ORCA-job optts+numfreq_TSOpt_IRC_B E -30.639019463780
  C       0.162345     -0.812253      1.707797
  C       0.840892      0.532480      1.911627
  C      -0.141831      1.408413     -0.225076
  H      -1.281632     -0.197303     -1.132489
  C      -0.039839      1.599828      1.283812
  H       0.760514      1.807517     -0.694765
  H      -0.994384      1.979468     -0.597580
  C       0.087467     -1.178905      0.225761
  H       0.970878      0.731866      2.976524
  H       1.821320      0.529839      1.429710
  C      -0.261576     -0.035457     -0.755858
  H      -0.650580     -1.976558      0.108414
  H       1.060628     -1.568280     -0.084387
  H       0.357764      2.598967      1.474304
  H      -1.035384      1.546298      1.731841
  H       0.701078     -1.605298      2.231883
  H      -0.845844     -0.764522      2.127936
  Br     -3.542626     -0.063945      0.716410
  C       0.389389     -0.948524     -2.917508
  O       0.641286     -0.047229     -1.869056
  H       0.554799     -1.991708     -2.624730
  H      -0.633920     -0.845008     -3.297932
  H       1.097297     -0.674205     -3.699644
23
Coordinates from ORCA-job optts+numfreq_TSOpt_IRC_B E -30.639235096910
  C       0.162367     -0.812396      1.706722
  C       0.841781      0.532323      1.911099
  C      -0.138969      1.409388     -0.225348
  H      -1.280097     -0.196265     -1.130602
  C      -0.040208      1.599633      1.284003
  H       0.762831      1.808595     -0.693955
  H      -0.991958      1.980334     -0.598581
  C       0.090952     -1.178656      0.224449
  H       0.970789      0.731267      2.976787
  H       1.821768      0.530191      1.430154
  C      -0.259712     -0.034571     -0.755970
  H      -0.647065     -1.976843      0.105946
  H       1.063831     -1.567444     -0.084972
  H       0.356671      2.599175      1.476082
  H      -1.035483      1.544410      1.729980
  H       0.700218     -1.605509      2.232199
  H      -0.845991     -0.764094      2.124134
  Br     -3.556194     -0.065319      0.717625
  C       0.388146     -0.949028     -2.916301
  O       0.641590     -0.045758     -1.870020
  H       0.552882     -1.991531     -2.620987
  H      -0.635567     -0.845232     -3.295381
  H       1.095459     -0.677190     -3.700070
